*SIMULATION OVERVIEW FILE

*DSSAT Cropping System Model Ver. 4.8.0.027 -develop  JUN 30, 2022 07:20:22

*RUN   1        : TERRAREF-----S4_808       SGCER048 TERRAR01    1
 MODEL          : SGCER048 - Sorghum
 EXPERIMENT     : TERRAR01 SG
 DATA PATH      :
 TREATMENT  1   : TERRAREF-----S4_808       SGCER048


 CROP           : Sorghum          CULTIVAR : N.AMERICAN       ECOTYPE :IB0001
 STARTING DATE  : MAR 21 2018
 PLANTING DATE  : APR 25 2018      PLANTS/m2 :    10.0    ROW SPACING :  72.cm
 WEATHER        : AZMC   2018
 SOIL           : AZMC920001     TEXTURE : CL    - TRIX CLAY LOAM
 SOIL INITIAL C : DEPTH:210cm EXTR. H2O:246.3mm  NO3:  0.0kg/ha  NH4:  0.0kg/ha
 WATER BALANCE  : IRRIGATE ON REPORTED DATE(S)
 IRRIGATION     :        0 mm IN     0 APPLICATIONS
 NITROGEN BAL.  : SOIL-N & N-UPTAKE SIMULATION; NO N-FIXATION
 N-FERTILIZER   :        0 kg/ha IN     0 APPLICATIONS
 RESIDUE/MANURE : INITIAL :     0 kg/ha ;       0 kg/ha IN     0 APPLICATIONS
 ENVIRONM. OPT. : DAYL=    0.00  SRAD=    0.00  TMAX=    0.00  TMIN=    0.00
                  RAIN=    0.00  CO2 =    0.00  DEW =    0.00  WIND=    0.00
 SIMULATION OPT : WATER   :Y  NITROGEN:Y  N-FIX:N  PHOSPH :N  PESTS  :N
                  PHOTO   :C  ET      :R  INFIL:S  HYDROL :R  SOM    :P
                  CO2 408ppm  NSWIT   :1  EVAP :S  SOIL   :2  STEMP  :D
 MANAGEMENT OPT : PLANTING:R  IRRIG   :R  FERT :R  RESIDUE:R  HARVEST:M
                  WEATHER :M  TILLAGE :Y

*SUMMARY OF SOIL AND GENETIC INPUT PARAMETERS

   SOIL LOWER UPPER   SAT  EXTR  INIT   ROOT   BULK     pH    NO3    NH4    ORG
  DEPTH LIMIT LIMIT    SW    SW    SW   DIST   DENS                          C
   cm   cm3/cm3    cm3/cm3    cm3/cm3         g/cm3         ugN/g  ugN/g     %
-------------------------------------------------------------------------------
  0-  5 0.202 0.320 0.417 0.118 0.320   1.00   1.31   8.50   0.00   0.00   0.41
  5- 15 0.201 0.319 0.424 0.118 0.319   0.74   1.27   8.50   0.00   0.00   0.35
 15- 30 0.199 0.319 0.424 0.120 0.319   0.61   1.27   8.50   0.00   0.00   0.27
 30- 40 0.198 0.318 0.419 0.120 0.318   0.45   1.30   8.60   0.00   0.00   0.24
 40- 50 0.198 0.318 0.419 0.120 0.318   0.45   1.30   8.60   0.00   0.00   0.24
 50- 60 0.198 0.318 0.387 0.120 0.318   0.30   1.47   8.60   0.00   0.00   0.16
 60- 70 0.198 0.318 0.387 0.120 0.318   0.30   1.47   8.60   0.00   0.00   0.16
 70- 90 0.186 0.299 0.359 0.113 0.299   0.18   1.57   8.60   0.00   0.00   0.30
 90-110 0.159 0.275 0.347 0.116 0.275   0.10   1.57   8.60   0.00   0.00   0.10
110-120 0.159 0.275 0.347 0.116 0.275   0.10   1.57   8.60   0.00   0.00   0.10
120-130 0.159 0.275 0.347 0.116 0.275   0.10   1.57   8.60   0.00   0.00   0.10
130-150 0.136 0.254 0.336 0.118 0.254   0.05   1.57   8.60   0.00   0.00 -99.00
150-170 0.136 0.254 0.336 0.118 0.254   0.00   1.57   8.60   0.00   0.00 -99.00
170-190 0.128 0.244 0.331 0.116 0.244   0.00   1.57   8.60   0.00   0.00 -99.00
190-210 0.128 0.244 0.331 0.116 0.244   0.00   1.57   8.60   0.00   0.00 -99.00

TOT-210  34.6  59.2  76.5  24.6  59.2  <--cm   -  kg/ha-->    0.0    0.0  38918
SOIL ALBEDO    : 0.20      EVAPORATION LIMIT :12.00         MIN. FACTOR  : 1.00
RUNOFF CURVE # :70.00      DRAINAGE RATE     : 0.29         FERT. FACTOR : 0.90

 Sorghum          CULTIVAR: 990001-N.AMERICAN         ECOTYPE: IB0001
 P1     :360.0  P2O    :12.50  P2R    :  30.0  P5     :540.00
 G1     :  0.0  G2     : 6.00  PHINT  : 49.00  P3     : 152.5  P4    :  81.5


*SIMULATED CROP AND SOIL STATUS AT MAIN DEVELOPMENT STAGES

 RUN NO.     1     TERRAREF-----S4_808     

        CROP GROWTH     BIOMASS         LEAF   CROP N     STRESS      STRESS                                           
   DATE  AGE STAGE        kg/ha    LAI   NUM  kg/ha  %   H2O  Nitr Phos1 Phos2  RSTG                                   
 ------  --- ----------   -----  -----  ----  ---  ---  ----  ----  ----  ----  ----                                   
                                                                                    
 25 APR    0 Sowing           0   0.00   0.0    0  0.0  0.00  0.00  0.00  0.00     8
  2 AUG   99 Germinate        0   0.00   0.0    0  0.0  0.00  0.00  0.00  0.00     9
  5 AUG  102 Emergence        2   0.00   0.9    0  5.0  0.00  0.00  0.00  0.00     1
 20 AUG  117 End Juveni      54   0.21   8.9    2  4.2  0.00  0.00  0.00  0.00     2
 27 AUG  124 Panicle In     349   0.90  12.3    5  1.4  0.10  0.47  0.00  0.00     3
 18 SEP  146 End Lf Gro    1005   0.98  21.7    9  0.9  0.76  0.80  0.00  0.00     4
 26 SEP  154 Anthesis      1280   0.76  21.7   10  0.8  0.70  0.30  0.00  0.00     4
 29 SEP  157 End Pan Gr    1343   0.67  21.7   10  0.8  0.87  0.04  0.00  0.00     5
 14 NOV  203 Maturity      1966   0.35  21.7   15  0.8  0.03  0.48  0.00  0.00     7
 14 NOV  203 Harvest       1966   0.35  21.7   15  0.8  0.00  0.00  0.00  0.00     7


*MAIN GROWTH AND DEVELOPMENT VARIABLES

@     VARIABLE                                         SIMULATED     MEASURED
      --------                                         ---------     --------
      Panicle Initiation day (dap)                           124          -99
      Anthesis day (dap)                                     154          -99
      Physiological maturity day (dap)                       203          -99
      Yield at harvest maturity (kg [dm]/ha)                 648          -99
      Number at maturity (no/m2)                            4348          -99
      Unit wt at maturity (g [dm]/unit)                   0.0149          -99
      Number at maturity (no/unit)                         434.8          -99
      Tops weight at maturity (kg [dm]/ha)                  1966          -99
      By-product produced (stalk) at maturity (kg[dm]/ha    1318          -99
      Leaf area index, maximum                              1.02          -99
      Harvest index at maturity                            0.329          -99
      Grain N at maturity (kg/ha)                             11          -99
      Tops N at maturity (kg/ha)                              15          -99
      Stem N at maturity (kg/ha)                               5          -99
      Grain N at maturity (%)                                1.6          -99
      Tops weight at anthesis (kg [dm]/ha)                  1257          -99
      Tops N at anthesis (kg/ha)                              10          -99
      Leaf number per stem at maturity                     21.70          -99
      Emergence day (dap)                                    102          -99


*ENVIRONMENTAL AND STRESS FACTORS

 |-----Development Phase------|--------------------------------------Environment--------------------------------------|-----------------Stress-----------------|
                              |---------------Average--------------|-----Cumulative-----|--------Count of days--------|          (0=Min, 1=Max Stress)         |
                         Time  Temp  Temp  Temp Solar Photop                Evapo    Pot TMIN TMIN TMAX TMAX TMAX RAIN|----Water----|---Nitrogen--|-Phosphorus-|
                         Span   Max   Min  Mean   Rad  [day]    CO2   Rain  Trans     ET   <    <    >    >    >    >   Photo         Photo         Photo
                         days    øC    øC    øC MJ/m2     hr    ppm     mm     mm     mm  0øC  2øC 30øC 32øC 34øC  0mm  synth Growth  synth Growth  synth Growth
----------------------------------------------------------------------------------------------------------------------------------------------------------------
 Emergence-End Juvenile    15  39.0  25.2  32.1  24.6  13.42  408.7   54.6   53.1  131.4    0    0   15   15   15    5  0.000  0.000  0.000  0.003  0.000  0.000
 End Juvenil-Panicle Ini    7  38.2  26.2  32.2  22.6  13.06  408.9    0.0   17.1   51.6    0    0    7    7    7    0  0.000  0.043  0.160  0.335  0.000  0.000
 Panicle Ini-End Lf Grow   22  40.1  23.1  31.6  24.3  12.53  408.9    0.0   40.4  180.1    0    0   22   22   22    0  0.607  0.738  0.584  0.820  0.000  0.000
 End Lf Grth-Beg Grn Fil   11  37.3  21.4  29.4  20.4  11.92  409.1   12.4   17.1   68.7    0    0   11   10   10    2  0.663  0.745  0.063  0.279  0.000  0.000
 Grain Filling Phase       45  27.5  13.3  20.4  16.1  10.91  409.3   92.7   97.3  169.6    0    0    9    3    2    6  0.034  0.045  0.271  0.491  0.000  0.000
   
 Planting to Harvest      204  36.2  20.0  28.1  23.8  12.95  408.7  178.8  259.4 1536.6    0    1  161  154  145   18  0.109  0.131  0.132  0.224  0.000  0.000
----------------------------------------------------------------------------------------------------------------------------------------------------------------


*Resource Productivity
 Growing season length: 204 days 

 Precipitation during growing season       178.8 mm[rain]
   Dry Matter Productivity                  1.10 kg[DM]/m3[rain]          =   11.0 kg[DM]/ha per mm[rain]
   Yield Productivity                       0.36 kg[grain yield]/m3[rain] =    3.6 kg[yield]/ha per mm[rain]

 Evapotranspiration during growing season  259.4 mm[ET]
   Dry Matter Productivity                  0.76 kg[DM]/m3[ET]            =    7.6 kg[DM]/ha per mm[ET]
   Yield Productivity                       0.25 kg[grain yield]/m3[ET]   =    2.5 kg[yield]/ha per mm[ET]

 Transpiration during growing season       100.5 mm[EP]
   Dry Matter Productivity                  1.96 kg[DM]/m3[EP]            =   19.6 kg[DM]/ha per mm[EP]
   Yield Productivity                       0.64 kg[grain yield]/m3[EP]   =    6.4 kg[yield]/ha per mm[EP]

 N uptake during growing season               20 kg[N uptake]/ha
   Dry Matter Productivity                  98.3 kg[DM]/kg[N uptake]
   Yield Productivity                       32.4 kg[yield]/kg[N uptake]

--------------------------------------------------------------------------------------------------------------

                   Sorghum YIELD :      648 kg/ha    [Dry weight] 

**************************************************************************************************************

*DSSAT Cropping System Model Ver. 4.8.0.027 -develop  JUN 30, 2022 07:20:22

*RUN   2        : TERRAREF-----S4_816       SGCER048 TERRAR01    2
 MODEL          : SGCER048 - Sorghum
 EXPERIMENT     : TERRAR01 SG
 DATA PATH      :
 TREATMENT  2   : TERRAREF-----S4_816       SGCER048


 CROP           : Sorghum          CULTIVAR : N.AMERICAN       ECOTYPE :IB0001
 STARTING DATE  : MAR 21 2018
 PLANTING DATE  : APR 25 2018      PLANTS/m2 :    10.0    ROW SPACING :  72.cm
 WEATHER        : AZMC   2018
 SOIL           : AZMC920001     TEXTURE : CL    - TRIX CLAY LOAM
 SOIL INITIAL C : DEPTH:210cm EXTR. H2O:246.3mm  NO3:  0.0kg/ha  NH4:  0.0kg/ha
 WATER BALANCE  : IRRIGATE ON REPORTED DATE(S)
 IRRIGATION     :        0 mm IN     0 APPLICATIONS
 NITROGEN BAL.  : SOIL-N & N-UPTAKE SIMULATION; NO N-FIXATION
 N-FERTILIZER   :        0 kg/ha IN     0 APPLICATIONS
 RESIDUE/MANURE : INITIAL :     0 kg/ha ;       0 kg/ha IN     0 APPLICATIONS
 ENVIRONM. OPT. : DAYL=    0.00  SRAD=    0.00  TMAX=    0.00  TMIN=    0.00
                  RAIN=    0.00  CO2 =    0.00  DEW =    0.00  WIND=    0.00
 SIMULATION OPT : WATER   :Y  NITROGEN:Y  N-FIX:N  PHOSPH :N  PESTS  :N
                  PHOTO   :C  ET      :R  INFIL:S  HYDROL :R  SOM    :P
                  CO2 408ppm  NSWIT   :1  EVAP :S  SOIL   :2  STEMP  :D
 MANAGEMENT OPT : PLANTING:R  IRRIG   :R  FERT :R  RESIDUE:R  HARVEST:M
                  WEATHER :M  TILLAGE :Y

*SUMMARY OF SOIL AND GENETIC INPUT PARAMETERS

   SOIL LOWER UPPER   SAT  EXTR  INIT   ROOT   BULK     pH    NO3    NH4    ORG
  DEPTH LIMIT LIMIT    SW    SW    SW   DIST   DENS                          C
   cm   cm3/cm3    cm3/cm3    cm3/cm3         g/cm3         ugN/g  ugN/g     %
-------------------------------------------------------------------------------
  0-  5 0.202 0.320 0.417 0.118 0.320   1.00   1.31   8.50   0.00   0.00   0.41
  5- 15 0.201 0.319 0.424 0.118 0.319   0.74   1.27   8.50   0.00   0.00   0.35
 15- 30 0.199 0.319 0.424 0.120 0.319   0.61   1.27   8.50   0.00   0.00   0.27
 30- 40 0.198 0.318 0.419 0.120 0.318   0.45   1.30   8.60   0.00   0.00   0.24
 40- 50 0.198 0.318 0.419 0.120 0.318   0.45   1.30   8.60   0.00   0.00   0.24
 50- 60 0.198 0.318 0.387 0.120 0.318   0.30   1.47   8.60   0.00   0.00   0.16
 60- 70 0.198 0.318 0.387 0.120 0.318   0.30   1.47   8.60   0.00   0.00   0.16
 70- 90 0.186 0.299 0.359 0.113 0.299   0.18   1.57   8.60   0.00   0.00   0.30
 90-110 0.159 0.275 0.347 0.116 0.275   0.10   1.57   8.60   0.00   0.00   0.10
110-120 0.159 0.275 0.347 0.116 0.275   0.10   1.57   8.60   0.00   0.00   0.10
120-130 0.159 0.275 0.347 0.116 0.275   0.10   1.57   8.60   0.00   0.00   0.10
130-150 0.136 0.254 0.336 0.118 0.254   0.05   1.57   8.60   0.00   0.00 -99.00
150-170 0.136 0.254 0.336 0.118 0.254   0.00   1.57   8.60   0.00   0.00 -99.00
170-190 0.128 0.244 0.331 0.116 0.244   0.00   1.57   8.60   0.00   0.00 -99.00
190-210 0.128 0.244 0.331 0.116 0.244   0.00   1.57   8.60   0.00   0.00 -99.00

TOT-210  34.6  59.2  76.5  24.6  59.2  <--cm   -  kg/ha-->    0.0    0.0  38918
SOIL ALBEDO    : 0.20      EVAPORATION LIMIT :12.00         MIN. FACTOR  : 1.00
RUNOFF CURVE # :70.00      DRAINAGE RATE     : 0.29         FERT. FACTOR : 0.90

 Sorghum          CULTIVAR: 990001-N.AMERICAN         ECOTYPE: IB0001
 P1     :360.0  P2O    :12.50  P2R    :  30.0  P5     :540.00
 G1     :  0.0  G2     : 6.00  PHINT  : 49.00  P3     : 152.5  P4    :  81.5


*SIMULATED CROP AND SOIL STATUS AT MAIN DEVELOPMENT STAGES

 RUN NO.     2     TERRAREF-----S4_816     

        CROP GROWTH     BIOMASS         LEAF   CROP N     STRESS      STRESS                                           
   DATE  AGE STAGE        kg/ha    LAI   NUM  kg/ha  %   H2O  Nitr Phos1 Phos2  RSTG                                   
 ------  --- ----------   -----  -----  ----  ---  ---  ----  ----  ----  ----  ----                                   
                                                                                    
 25 APR    0 Sowing           0   0.00   0.0    0  0.0  0.00  0.00  0.00  0.00     8
  2 AUG   99 Germinate        0   0.00   0.0    0  0.0  0.00  0.00  0.00  0.00     9
  5 AUG  102 Emergence        2   0.00   0.9    0  5.0  0.00  0.00  0.00  0.00     1
 20 AUG  117 End Juveni      54   0.21   8.9    2  4.2  0.00  0.00  0.00  0.00     2
 27 AUG  124 Panicle In     349   0.90  12.3    5  1.4  0.10  0.47  0.00  0.00     3
 18 SEP  146 End Lf Gro    1005   0.98  21.7    9  0.9  0.76  0.80  0.00  0.00     4
 26 SEP  154 Anthesis      1280   0.76  21.7   10  0.8  0.70  0.30  0.00  0.00     4
 29 SEP  157 End Pan Gr    1343   0.67  21.7   10  0.8  0.87  0.04  0.00  0.00     5
 14 NOV  203 Maturity      1966   0.35  21.7   15  0.8  0.03  0.48  0.00  0.00     7
 14 NOV  203 Harvest       1966   0.35  21.7   15  0.8  0.00  0.00  0.00  0.00     7


*MAIN GROWTH AND DEVELOPMENT VARIABLES

@     VARIABLE                                         SIMULATED     MEASURED
      --------                                         ---------     --------
      Panicle Initiation day (dap)                           124          -99
      Anthesis day (dap)                                     154          -99
      Physiological maturity day (dap)                       203          -99
      Yield at harvest maturity (kg [dm]/ha)                 648          -99
      Number at maturity (no/m2)                            4348          -99
      Unit wt at maturity (g [dm]/unit)                   0.0149          -99
      Number at maturity (no/unit)                         434.8          -99
      Tops weight at maturity (kg [dm]/ha)                  1966          -99
      By-product produced (stalk) at maturity (kg[dm]/ha    1318          -99
      Leaf area index, maximum                              1.02          -99
      Harvest index at maturity                            0.329          -99
      Grain N at maturity (kg/ha)                             11          -99
      Tops N at maturity (kg/ha)                              15          -99
      Stem N at maturity (kg/ha)                               5          -99
      Grain N at maturity (%)                                1.6          -99
      Tops weight at anthesis (kg [dm]/ha)                  1257          -99
      Tops N at anthesis (kg/ha)                              10          -99
      Leaf number per stem at maturity                     21.70          -99
      Emergence day (dap)                                    102          -99


*ENVIRONMENTAL AND STRESS FACTORS

 |-----Development Phase------|--------------------------------------Environment--------------------------------------|-----------------Stress-----------------|
                              |---------------Average--------------|-----Cumulative-----|--------Count of days--------|          (0=Min, 1=Max Stress)         |
                         Time  Temp  Temp  Temp Solar Photop                Evapo    Pot TMIN TMIN TMAX TMAX TMAX RAIN|----Water----|---Nitrogen--|-Phosphorus-|
                         Span   Max   Min  Mean   Rad  [day]    CO2   Rain  Trans     ET   <    <    >    >    >    >   Photo         Photo         Photo
                         days    øC    øC    øC MJ/m2     hr    ppm     mm     mm     mm  0øC  2øC 30øC 32øC 34øC  0mm  synth Growth  synth Growth  synth Growth
----------------------------------------------------------------------------------------------------------------------------------------------------------------
 Emergence-End Juvenile    15  39.0  25.2  32.1  24.6  13.42  408.7   54.6   53.1  131.4    0    0   15   15   15    5  0.000  0.000  0.000  0.003  0.000  0.000
 End Juvenil-Panicle Ini    7  38.2  26.2  32.2  22.6  13.06  408.9    0.0   17.1   51.6    0    0    7    7    7    0  0.000  0.043  0.160  0.335  0.000  0.000
 Panicle Ini-End Lf Grow   22  40.1  23.1  31.6  24.3  12.53  408.9    0.0   40.4  180.1    0    0   22   22   22    0  0.607  0.738  0.584  0.820  0.000  0.000
 End Lf Grth-Beg Grn Fil   11  37.3  21.4  29.4  20.4  11.92  409.1   12.4   17.1   68.7    0    0   11   10   10    2  0.663  0.745  0.063  0.279  0.000  0.000
 Grain Filling Phase       45  27.5  13.3  20.4  16.1  10.91  409.3   92.7   97.3  169.6    0    0    9    3    2    6  0.034  0.045  0.271  0.491  0.000  0.000
   
 Planting to Harvest      204  36.2  20.0  28.1  23.8  12.95  408.7  178.8  259.4 1536.6    0    1  161  154  145   18  0.109  0.131  0.132  0.224  0.000  0.000
----------------------------------------------------------------------------------------------------------------------------------------------------------------


*Resource Productivity
 Growing season length: 204 days 

 Precipitation during growing season       178.8 mm[rain]
   Dry Matter Productivity                  1.10 kg[DM]/m3[rain]          =   11.0 kg[DM]/ha per mm[rain]
   Yield Productivity                       0.36 kg[grain yield]/m3[rain] =    3.6 kg[yield]/ha per mm[rain]

 Evapotranspiration during growing season  259.4 mm[ET]
   Dry Matter Productivity                  0.76 kg[DM]/m3[ET]            =    7.6 kg[DM]/ha per mm[ET]
   Yield Productivity                       0.25 kg[grain yield]/m3[ET]   =    2.5 kg[yield]/ha per mm[ET]

 Transpiration during growing season       100.5 mm[EP]
   Dry Matter Productivity                  1.96 kg[DM]/m3[EP]            =   19.6 kg[DM]/ha per mm[EP]
   Yield Productivity                       0.64 kg[grain yield]/m3[EP]   =    6.4 kg[yield]/ha per mm[EP]

 N uptake during growing season               20 kg[N uptake]/ha
   Dry Matter Productivity                  98.3 kg[DM]/kg[N uptake]
   Yield Productivity                       32.4 kg[yield]/kg[N uptake]

--------------------------------------------------------------------------------------------------------------

                   Sorghum YIELD :      648 kg/ha    [Dry weight] 

**************************************************************************************************************

*DSSAT Cropping System Model Ver. 4.8.0.027 -develop  JUN 30, 2022 07:20:22

*RUN   3        : TERRAREF-----S4_824       SGCER048 TERRAR01    3
 MODEL          : SGCER048 - Sorghum
 EXPERIMENT     : TERRAR01 SG
 DATA PATH      :
 TREATMENT  3   : TERRAREF-----S4_824       SGCER048


 CROP           : Sorghum          CULTIVAR : N.AMERICAN       ECOTYPE :IB0001
 STARTING DATE  : MAR 21 2018
 PLANTING DATE  : APR 25 2018      PLANTS/m2 :    10.0    ROW SPACING :  72.cm
 WEATHER        : AZMC   2018
 SOIL           : AZMC920001     TEXTURE : CL    - TRIX CLAY LOAM
 SOIL INITIAL C : DEPTH:210cm EXTR. H2O:246.3mm  NO3:  0.0kg/ha  NH4:  0.0kg/ha
 WATER BALANCE  : IRRIGATE ON REPORTED DATE(S)
 IRRIGATION     :        0 mm IN     0 APPLICATIONS
 NITROGEN BAL.  : SOIL-N & N-UPTAKE SIMULATION; NO N-FIXATION
 N-FERTILIZER   :        0 kg/ha IN     0 APPLICATIONS
 RESIDUE/MANURE : INITIAL :     0 kg/ha ;       0 kg/ha IN     0 APPLICATIONS
 ENVIRONM. OPT. : DAYL=    0.00  SRAD=    0.00  TMAX=    0.00  TMIN=    0.00
                  RAIN=    0.00  CO2 =    0.00  DEW =    0.00  WIND=    0.00
 SIMULATION OPT : WATER   :Y  NITROGEN:Y  N-FIX:N  PHOSPH :N  PESTS  :N
                  PHOTO   :C  ET      :R  INFIL:S  HYDROL :R  SOM    :P
                  CO2 408ppm  NSWIT   :1  EVAP :S  SOIL   :2  STEMP  :D
 MANAGEMENT OPT : PLANTING:R  IRRIG   :R  FERT :R  RESIDUE:R  HARVEST:M
                  WEATHER :M  TILLAGE :Y

*SUMMARY OF SOIL AND GENETIC INPUT PARAMETERS

   SOIL LOWER UPPER   SAT  EXTR  INIT   ROOT   BULK     pH    NO3    NH4    ORG
  DEPTH LIMIT LIMIT    SW    SW    SW   DIST   DENS                          C
   cm   cm3/cm3    cm3/cm3    cm3/cm3         g/cm3         ugN/g  ugN/g     %
-------------------------------------------------------------------------------
  0-  5 0.202 0.320 0.417 0.118 0.320   1.00   1.31   8.50   0.00   0.00   0.41
  5- 15 0.201 0.319 0.424 0.118 0.319   0.74   1.27   8.50   0.00   0.00   0.35
 15- 30 0.199 0.319 0.424 0.120 0.319   0.61   1.27   8.50   0.00   0.00   0.27
 30- 40 0.198 0.318 0.419 0.120 0.318   0.45   1.30   8.60   0.00   0.00   0.24
 40- 50 0.198 0.318 0.419 0.120 0.318   0.45   1.30   8.60   0.00   0.00   0.24
 50- 60 0.198 0.318 0.387 0.120 0.318   0.30   1.47   8.60   0.00   0.00   0.16
 60- 70 0.198 0.318 0.387 0.120 0.318   0.30   1.47   8.60   0.00   0.00   0.16
 70- 90 0.186 0.299 0.359 0.113 0.299   0.18   1.57   8.60   0.00   0.00   0.30
 90-110 0.159 0.275 0.347 0.116 0.275   0.10   1.57   8.60   0.00   0.00   0.10
110-120 0.159 0.275 0.347 0.116 0.275   0.10   1.57   8.60   0.00   0.00   0.10
120-130 0.159 0.275 0.347 0.116 0.275   0.10   1.57   8.60   0.00   0.00   0.10
130-150 0.136 0.254 0.336 0.118 0.254   0.05   1.57   8.60   0.00   0.00 -99.00
150-170 0.136 0.254 0.336 0.118 0.254   0.00   1.57   8.60   0.00   0.00 -99.00
170-190 0.128 0.244 0.331 0.116 0.244   0.00   1.57   8.60   0.00   0.00 -99.00
190-210 0.128 0.244 0.331 0.116 0.244   0.00   1.57   8.60   0.00   0.00 -99.00

TOT-210  34.6  59.2  76.5  24.6  59.2  <--cm   -  kg/ha-->    0.0    0.0  38918
SOIL ALBEDO    : 0.20      EVAPORATION LIMIT :12.00         MIN. FACTOR  : 1.00
RUNOFF CURVE # :70.00      DRAINAGE RATE     : 0.29         FERT. FACTOR : 0.90

 Sorghum          CULTIVAR: 990001-N.AMERICAN         ECOTYPE: IB0001
 P1     :360.0  P2O    :12.50  P2R    :  30.0  P5     :540.00
 G1     :  0.0  G2     : 6.00  PHINT  : 49.00  P3     : 152.5  P4    :  81.5


*SIMULATED CROP AND SOIL STATUS AT MAIN DEVELOPMENT STAGES

 RUN NO.     3     TERRAREF-----S4_824     

        CROP GROWTH     BIOMASS         LEAF   CROP N     STRESS      STRESS                                           
   DATE  AGE STAGE        kg/ha    LAI   NUM  kg/ha  %   H2O  Nitr Phos1 Phos2  RSTG                                   
 ------  --- ----------   -----  -----  ----  ---  ---  ----  ----  ----  ----  ----                                   
                                                                                    
 25 APR    0 Sowing           0   0.00   0.0    0  0.0  0.00  0.00  0.00  0.00     8
  2 AUG   99 Germinate        0   0.00   0.0    0  0.0  0.00  0.00  0.00  0.00     9
  5 AUG  102 Emergence        2   0.00   0.9    0  5.0  0.00  0.00  0.00  0.00     1
 20 AUG  117 End Juveni      54   0.21   8.9    2  4.2  0.00  0.00  0.00  0.00     2
 27 AUG  124 Panicle In     349   0.90  12.3    5  1.4  0.10  0.47  0.00  0.00     3
 18 SEP  146 End Lf Gro    1005   0.98  21.7    9  0.9  0.76  0.80  0.00  0.00     4
 26 SEP  154 Anthesis      1280   0.76  21.7   10  0.8  0.70  0.30  0.00  0.00     4
 29 SEP  157 End Pan Gr    1343   0.67  21.7   10  0.8  0.87  0.04  0.00  0.00     5
 14 NOV  203 Maturity      1966   0.35  21.7   15  0.8  0.03  0.48  0.00  0.00     7
 14 NOV  203 Harvest       1966   0.35  21.7   15  0.8  0.00  0.00  0.00  0.00     7


*MAIN GROWTH AND DEVELOPMENT VARIABLES

@     VARIABLE                                         SIMULATED     MEASURED
      --------                                         ---------     --------
      Panicle Initiation day (dap)                           124          -99
      Anthesis day (dap)                                     154          -99
      Physiological maturity day (dap)                       203          -99
      Yield at harvest maturity (kg [dm]/ha)                 648          -99
      Number at maturity (no/m2)                            4348          -99
      Unit wt at maturity (g [dm]/unit)                   0.0149          -99
      Number at maturity (no/unit)                         434.8          -99
      Tops weight at maturity (kg [dm]/ha)                  1966          -99
      By-product produced (stalk) at maturity (kg[dm]/ha    1318          -99
      Leaf area index, maximum                              1.02          -99
      Harvest index at maturity                            0.329          -99
      Grain N at maturity (kg/ha)                             11          -99
      Tops N at maturity (kg/ha)                              15          -99
      Stem N at maturity (kg/ha)                               5          -99
      Grain N at maturity (%)                                1.6          -99
      Tops weight at anthesis (kg [dm]/ha)                  1257          -99
      Tops N at anthesis (kg/ha)                              10          -99
      Leaf number per stem at maturity                     21.70          -99
      Emergence day (dap)                                    102          -99


*ENVIRONMENTAL AND STRESS FACTORS

 |-----Development Phase------|--------------------------------------Environment--------------------------------------|-----------------Stress-----------------|
                              |---------------Average--------------|-----Cumulative-----|--------Count of days--------|          (0=Min, 1=Max Stress)         |
                         Time  Temp  Temp  Temp Solar Photop                Evapo    Pot TMIN TMIN TMAX TMAX TMAX RAIN|----Water----|---Nitrogen--|-Phosphorus-|
                         Span   Max   Min  Mean   Rad  [day]    CO2   Rain  Trans     ET   <    <    >    >    >    >   Photo         Photo         Photo
                         days    øC    øC    øC MJ/m2     hr    ppm     mm     mm     mm  0øC  2øC 30øC 32øC 34øC  0mm  synth Growth  synth Growth  synth Growth
----------------------------------------------------------------------------------------------------------------------------------------------------------------
 Emergence-End Juvenile    15  39.0  25.2  32.1  24.6  13.42  408.7   54.6   53.1  131.4    0    0   15   15   15    5  0.000  0.000  0.000  0.003  0.000  0.000
 End Juvenil-Panicle Ini    7  38.2  26.2  32.2  22.6  13.06  408.9    0.0   17.1   51.6    0    0    7    7    7    0  0.000  0.043  0.160  0.335  0.000  0.000
 Panicle Ini-End Lf Grow   22  40.1  23.1  31.6  24.3  12.53  408.9    0.0   40.4  180.1    0    0   22   22   22    0  0.607  0.738  0.584  0.820  0.000  0.000
 End Lf Grth-Beg Grn Fil   11  37.3  21.4  29.4  20.4  11.92  409.1   12.4   17.1   68.7    0    0   11   10   10    2  0.663  0.745  0.063  0.279  0.000  0.000
 Grain Filling Phase       45  27.5  13.3  20.4  16.1  10.91  409.3   92.7   97.3  169.6    0    0    9    3    2    6  0.034  0.045  0.271  0.491  0.000  0.000
   
 Planting to Harvest      204  36.2  20.0  28.1  23.8  12.95  408.7  178.8  259.4 1536.6    0    1  161  154  145   18  0.109  0.131  0.132  0.224  0.000  0.000
----------------------------------------------------------------------------------------------------------------------------------------------------------------


*Resource Productivity
 Growing season length: 204 days 

 Precipitation during growing season       178.8 mm[rain]
   Dry Matter Productivity                  1.10 kg[DM]/m3[rain]          =   11.0 kg[DM]/ha per mm[rain]
   Yield Productivity                       0.36 kg[grain yield]/m3[rain] =    3.6 kg[yield]/ha per mm[rain]

 Evapotranspiration during growing season  259.4 mm[ET]
   Dry Matter Productivity                  0.76 kg[DM]/m3[ET]            =    7.6 kg[DM]/ha per mm[ET]
   Yield Productivity                       0.25 kg[grain yield]/m3[ET]   =    2.5 kg[yield]/ha per mm[ET]

 Transpiration during growing season       100.5 mm[EP]
   Dry Matter Productivity                  1.96 kg[DM]/m3[EP]            =   19.6 kg[DM]/ha per mm[EP]
   Yield Productivity                       0.64 kg[grain yield]/m3[EP]   =    6.4 kg[yield]/ha per mm[EP]

 N uptake during growing season               20 kg[N uptake]/ha
   Dry Matter Productivity                  98.3 kg[DM]/kg[N uptake]
   Yield Productivity                       32.4 kg[yield]/kg[N uptake]

--------------------------------------------------------------------------------------------------------------

                   Sorghum YIELD :      648 kg/ha    [Dry weight] 

**************************************************************************************************************

*DSSAT Cropping System Model Ver. 4.8.0.027 -develop  JUN 30, 2022 07:20:22

*RUN   4        : TERRAREF-----S4_832       SGCER048 TERRAR01    4
 MODEL          : SGCER048 - Sorghum
 EXPERIMENT     : TERRAR01 SG
 DATA PATH      :
 TREATMENT  4   : TERRAREF-----S4_832       SGCER048


 CROP           : Sorghum          CULTIVAR : N.AMERICAN       ECOTYPE :IB0001
 STARTING DATE  : MAR 21 2018
 PLANTING DATE  : APR 25 2018      PLANTS/m2 :    10.0    ROW SPACING :  72.cm
 WEATHER        : AZMC   2018
 SOIL           : AZMC920001     TEXTURE : CL    - TRIX CLAY LOAM
 SOIL INITIAL C : DEPTH:210cm EXTR. H2O:246.3mm  NO3:  0.0kg/ha  NH4:  0.0kg/ha
 WATER BALANCE  : IRRIGATE ON REPORTED DATE(S)
 IRRIGATION     :        0 mm IN     0 APPLICATIONS
 NITROGEN BAL.  : SOIL-N & N-UPTAKE SIMULATION; NO N-FIXATION
 N-FERTILIZER   :        0 kg/ha IN     0 APPLICATIONS
 RESIDUE/MANURE : INITIAL :     0 kg/ha ;       0 kg/ha IN     0 APPLICATIONS
 ENVIRONM. OPT. : DAYL=    0.00  SRAD=    0.00  TMAX=    0.00  TMIN=    0.00
                  RAIN=    0.00  CO2 =    0.00  DEW =    0.00  WIND=    0.00
 SIMULATION OPT : WATER   :Y  NITROGEN:Y  N-FIX:N  PHOSPH :N  PESTS  :N
                  PHOTO   :C  ET      :R  INFIL:S  HYDROL :R  SOM    :P
                  CO2 408ppm  NSWIT   :1  EVAP :S  SOIL   :2  STEMP  :D
 MANAGEMENT OPT : PLANTING:R  IRRIG   :R  FERT :R  RESIDUE:R  HARVEST:M
                  WEATHER :M  TILLAGE :Y

*SUMMARY OF SOIL AND GENETIC INPUT PARAMETERS

   SOIL LOWER UPPER   SAT  EXTR  INIT   ROOT   BULK     pH    NO3    NH4    ORG
  DEPTH LIMIT LIMIT    SW    SW    SW   DIST   DENS                          C
   cm   cm3/cm3    cm3/cm3    cm3/cm3         g/cm3         ugN/g  ugN/g     %
-------------------------------------------------------------------------------
  0-  5 0.202 0.320 0.417 0.118 0.320   1.00   1.31   8.50   0.00   0.00   0.41
  5- 15 0.201 0.319 0.424 0.118 0.319   0.74   1.27   8.50   0.00   0.00   0.35
 15- 30 0.199 0.319 0.424 0.120 0.319   0.61   1.27   8.50   0.00   0.00   0.27
 30- 40 0.198 0.318 0.419 0.120 0.318   0.45   1.30   8.60   0.00   0.00   0.24
 40- 50 0.198 0.318 0.419 0.120 0.318   0.45   1.30   8.60   0.00   0.00   0.24
 50- 60 0.198 0.318 0.387 0.120 0.318   0.30   1.47   8.60   0.00   0.00   0.16
 60- 70 0.198 0.318 0.387 0.120 0.318   0.30   1.47   8.60   0.00   0.00   0.16
 70- 90 0.186 0.299 0.359 0.113 0.299   0.18   1.57   8.60   0.00   0.00   0.30
 90-110 0.159 0.275 0.347 0.116 0.275   0.10   1.57   8.60   0.00   0.00   0.10
110-120 0.159 0.275 0.347 0.116 0.275   0.10   1.57   8.60   0.00   0.00   0.10
120-130 0.159 0.275 0.347 0.116 0.275   0.10   1.57   8.60   0.00   0.00   0.10
130-150 0.136 0.254 0.336 0.118 0.254   0.05   1.57   8.60   0.00   0.00 -99.00
150-170 0.136 0.254 0.336 0.118 0.254   0.00   1.57   8.60   0.00   0.00 -99.00
170-190 0.128 0.244 0.331 0.116 0.244   0.00   1.57   8.60   0.00   0.00 -99.00
190-210 0.128 0.244 0.331 0.116 0.244   0.00   1.57   8.60   0.00   0.00 -99.00

TOT-210  34.6  59.2  76.5  24.6  59.2  <--cm   -  kg/ha-->    0.0    0.0  38918
SOIL ALBEDO    : 0.20      EVAPORATION LIMIT :12.00         MIN. FACTOR  : 1.00
RUNOFF CURVE # :70.00      DRAINAGE RATE     : 0.29         FERT. FACTOR : 0.90

 Sorghum          CULTIVAR: 990001-N.AMERICAN         ECOTYPE: IB0001
 P1     :360.0  P2O    :12.50  P2R    :  30.0  P5     :540.00
 G1     :  0.0  G2     : 6.00  PHINT  : 49.00  P3     : 152.5  P4    :  81.5


*SIMULATED CROP AND SOIL STATUS AT MAIN DEVELOPMENT STAGES

 RUN NO.     4     TERRAREF-----S4_832     

        CROP GROWTH     BIOMASS         LEAF   CROP N     STRESS      STRESS                                           
   DATE  AGE STAGE        kg/ha    LAI   NUM  kg/ha  %   H2O  Nitr Phos1 Phos2  RSTG                                   
 ------  --- ----------   -----  -----  ----  ---  ---  ----  ----  ----  ----  ----                                   
                                                                                    
 25 APR    0 Sowing           0   0.00   0.0    0  0.0  0.00  0.00  0.00  0.00     8
  2 AUG   99 Germinate        0   0.00   0.0    0  0.0  0.00  0.00  0.00  0.00     9
  5 AUG  102 Emergence        2   0.00   0.9    0  5.0  0.00  0.00  0.00  0.00     1
 20 AUG  117 End Juveni      54   0.21   8.9    2  4.2  0.00  0.00  0.00  0.00     2
 27 AUG  124 Panicle In     349   0.90  12.3    5  1.4  0.10  0.47  0.00  0.00     3
 18 SEP  146 End Lf Gro    1005   0.98  21.7    9  0.9  0.76  0.80  0.00  0.00     4
 26 SEP  154 Anthesis      1280   0.76  21.7   10  0.8  0.70  0.30  0.00  0.00     4
 29 SEP  157 End Pan Gr    1343   0.67  21.7   10  0.8  0.87  0.04  0.00  0.00     5
 14 NOV  203 Maturity      1966   0.35  21.7   15  0.8  0.03  0.48  0.00  0.00     7
 14 NOV  203 Harvest       1966   0.35  21.7   15  0.8  0.00  0.00  0.00  0.00     7


*MAIN GROWTH AND DEVELOPMENT VARIABLES

@     VARIABLE                                         SIMULATED     MEASURED
      --------                                         ---------     --------
      Panicle Initiation day (dap)                           124          -99
      Anthesis day (dap)                                     154          -99
      Physiological maturity day (dap)                       203          -99
      Yield at harvest maturity (kg [dm]/ha)                 648          -99
      Number at maturity (no/m2)                            4348          -99
      Unit wt at maturity (g [dm]/unit)                   0.0149          -99
      Number at maturity (no/unit)                         434.8          -99
      Tops weight at maturity (kg [dm]/ha)                  1966          -99
      By-product produced (stalk) at maturity (kg[dm]/ha    1318          -99
      Leaf area index, maximum                              1.02          -99
      Harvest index at maturity                            0.329          -99
      Grain N at maturity (kg/ha)                             11          -99
      Tops N at maturity (kg/ha)                              15          -99
      Stem N at maturity (kg/ha)                               5          -99
      Grain N at maturity (%)                                1.6          -99
      Tops weight at anthesis (kg [dm]/ha)                  1257          -99
      Tops N at anthesis (kg/ha)                              10          -99
      Leaf number per stem at maturity                     21.70          -99
      Emergence day (dap)                                    102          -99


*ENVIRONMENTAL AND STRESS FACTORS

 |-----Development Phase------|--------------------------------------Environment--------------------------------------|-----------------Stress-----------------|
                              |---------------Average--------------|-----Cumulative-----|--------Count of days--------|          (0=Min, 1=Max Stress)         |
                         Time  Temp  Temp  Temp Solar Photop                Evapo    Pot TMIN TMIN TMAX TMAX TMAX RAIN|----Water----|---Nitrogen--|-Phosphorus-|
                         Span   Max   Min  Mean   Rad  [day]    CO2   Rain  Trans     ET   <    <    >    >    >    >   Photo         Photo         Photo
                         days    øC    øC    øC MJ/m2     hr    ppm     mm     mm     mm  0øC  2øC 30øC 32øC 34øC  0mm  synth Growth  synth Growth  synth Growth
----------------------------------------------------------------------------------------------------------------------------------------------------------------
 Emergence-End Juvenile    15  39.0  25.2  32.1  24.6  13.42  408.7   54.6   53.1  131.4    0    0   15   15   15    5  0.000  0.000  0.000  0.003  0.000  0.000
 End Juvenil-Panicle Ini    7  38.2  26.2  32.2  22.6  13.06  408.9    0.0   17.1   51.6    0    0    7    7    7    0  0.000  0.043  0.160  0.335  0.000  0.000
 Panicle Ini-End Lf Grow   22  40.1  23.1  31.6  24.3  12.53  408.9    0.0   40.4  180.1    0    0   22   22   22    0  0.607  0.738  0.584  0.820  0.000  0.000
 End Lf Grth-Beg Grn Fil   11  37.3  21.4  29.4  20.4  11.92  409.1   12.4   17.1   68.7    0    0   11   10   10    2  0.663  0.745  0.063  0.279  0.000  0.000
 Grain Filling Phase       45  27.5  13.3  20.4  16.1  10.91  409.3   92.7   97.3  169.6    0    0    9    3    2    6  0.034  0.045  0.271  0.491  0.000  0.000
   
 Planting to Harvest      204  36.2  20.0  28.1  23.8  12.95  408.7  178.8  259.4 1536.6    0    1  161  154  145   18  0.109  0.131  0.132  0.224  0.000  0.000
----------------------------------------------------------------------------------------------------------------------------------------------------------------


*Resource Productivity
 Growing season length: 204 days 

 Precipitation during growing season       178.8 mm[rain]
   Dry Matter Productivity                  1.10 kg[DM]/m3[rain]          =   11.0 kg[DM]/ha per mm[rain]
   Yield Productivity                       0.36 kg[grain yield]/m3[rain] =    3.6 kg[yield]/ha per mm[rain]

 Evapotranspiration during growing season  259.4 mm[ET]
   Dry Matter Productivity                  0.76 kg[DM]/m3[ET]            =    7.6 kg[DM]/ha per mm[ET]
   Yield Productivity                       0.25 kg[grain yield]/m3[ET]   =    2.5 kg[yield]/ha per mm[ET]

 Transpiration during growing season       100.5 mm[EP]
   Dry Matter Productivity                  1.96 kg[DM]/m3[EP]            =   19.6 kg[DM]/ha per mm[EP]
   Yield Productivity                       0.64 kg[grain yield]/m3[EP]   =    6.4 kg[yield]/ha per mm[EP]

 N uptake during growing season               20 kg[N uptake]/ha
   Dry Matter Productivity                  98.3 kg[DM]/kg[N uptake]
   Yield Productivity                       32.4 kg[yield]/kg[N uptake]

--------------------------------------------------------------------------------------------------------------

                   Sorghum YIELD :      648 kg/ha    [Dry weight] 

**************************************************************************************************************

*DSSAT Cropping System Model Ver. 4.8.0.027 -develop  JUN 30, 2022 07:20:22

*RUN   5        : TERRAREF-----S4_840       SGCER048 TERRAR01    5
 MODEL          : SGCER048 - Sorghum
 EXPERIMENT     : TERRAR01 SG
 DATA PATH      :
 TREATMENT  5   : TERRAREF-----S4_840       SGCER048


 CROP           : Sorghum          CULTIVAR : N.AMERICAN       ECOTYPE :IB0001
 STARTING DATE  : MAR 21 2018
 PLANTING DATE  : APR 25 2018      PLANTS/m2 :    10.0    ROW SPACING :  72.cm
 WEATHER        : AZMC   2018
 SOIL           : AZMC920001     TEXTURE : CL    - TRIX CLAY LOAM
 SOIL INITIAL C : DEPTH:210cm EXTR. H2O:246.3mm  NO3:  0.0kg/ha  NH4:  0.0kg/ha
 WATER BALANCE  : IRRIGATE ON REPORTED DATE(S)
 IRRIGATION     :        0 mm IN     0 APPLICATIONS
 NITROGEN BAL.  : SOIL-N & N-UPTAKE SIMULATION; NO N-FIXATION
 N-FERTILIZER   :        0 kg/ha IN     0 APPLICATIONS
 RESIDUE/MANURE : INITIAL :     0 kg/ha ;       0 kg/ha IN     0 APPLICATIONS
 ENVIRONM. OPT. : DAYL=    0.00  SRAD=    0.00  TMAX=    0.00  TMIN=    0.00
                  RAIN=    0.00  CO2 =    0.00  DEW =    0.00  WIND=    0.00
 SIMULATION OPT : WATER   :Y  NITROGEN:Y  N-FIX:N  PHOSPH :N  PESTS  :N
                  PHOTO   :C  ET      :R  INFIL:S  HYDROL :R  SOM    :P
                  CO2 408ppm  NSWIT   :1  EVAP :S  SOIL   :2  STEMP  :D
 MANAGEMENT OPT : PLANTING:R  IRRIG   :R  FERT :R  RESIDUE:R  HARVEST:M
                  WEATHER :M  TILLAGE :Y

*SUMMARY OF SOIL AND GENETIC INPUT PARAMETERS

   SOIL LOWER UPPER   SAT  EXTR  INIT   ROOT   BULK     pH    NO3    NH4    ORG
  DEPTH LIMIT LIMIT    SW    SW    SW   DIST   DENS                          C
   cm   cm3/cm3    cm3/cm3    cm3/cm3         g/cm3         ugN/g  ugN/g     %
-------------------------------------------------------------------------------
  0-  5 0.202 0.320 0.417 0.118 0.320   1.00   1.31   8.50   0.00   0.00   0.41
  5- 15 0.201 0.319 0.424 0.118 0.319   0.74   1.27   8.50   0.00   0.00   0.35
 15- 30 0.199 0.319 0.424 0.120 0.319   0.61   1.27   8.50   0.00   0.00   0.27
 30- 40 0.198 0.318 0.419 0.120 0.318   0.45   1.30   8.60   0.00   0.00   0.24
 40- 50 0.198 0.318 0.419 0.120 0.318   0.45   1.30   8.60   0.00   0.00   0.24
 50- 60 0.198 0.318 0.387 0.120 0.318   0.30   1.47   8.60   0.00   0.00   0.16
 60- 70 0.198 0.318 0.387 0.120 0.318   0.30   1.47   8.60   0.00   0.00   0.16
 70- 90 0.186 0.299 0.359 0.113 0.299   0.18   1.57   8.60   0.00   0.00   0.30
 90-110 0.159 0.275 0.347 0.116 0.275   0.10   1.57   8.60   0.00   0.00   0.10
110-120 0.159 0.275 0.347 0.116 0.275   0.10   1.57   8.60   0.00   0.00   0.10
120-130 0.159 0.275 0.347 0.116 0.275   0.10   1.57   8.60   0.00   0.00   0.10
130-150 0.136 0.254 0.336 0.118 0.254   0.05   1.57   8.60   0.00   0.00 -99.00
150-170 0.136 0.254 0.336 0.118 0.254   0.00   1.57   8.60   0.00   0.00 -99.00
170-190 0.128 0.244 0.331 0.116 0.244   0.00   1.57   8.60   0.00   0.00 -99.00
190-210 0.128 0.244 0.331 0.116 0.244   0.00   1.57   8.60   0.00   0.00 -99.00

TOT-210  34.6  59.2  76.5  24.6  59.2  <--cm   -  kg/ha-->    0.0    0.0  38918
SOIL ALBEDO    : 0.20      EVAPORATION LIMIT :12.00         MIN. FACTOR  : 1.00
RUNOFF CURVE # :70.00      DRAINAGE RATE     : 0.29         FERT. FACTOR : 0.90

 Sorghum          CULTIVAR: 990001-N.AMERICAN         ECOTYPE: IB0001
 P1     :360.0  P2O    :12.50  P2R    :  30.0  P5     :540.00
 G1     :  0.0  G2     : 6.00  PHINT  : 49.00  P3     : 152.5  P4    :  81.5


*SIMULATED CROP AND SOIL STATUS AT MAIN DEVELOPMENT STAGES

 RUN NO.     5     TERRAREF-----S4_840     

        CROP GROWTH     BIOMASS         LEAF   CROP N     STRESS      STRESS                                           
   DATE  AGE STAGE        kg/ha    LAI   NUM  kg/ha  %   H2O  Nitr Phos1 Phos2  RSTG                                   
 ------  --- ----------   -----  -----  ----  ---  ---  ----  ----  ----  ----  ----                                   
                                                                                    
 25 APR    0 Sowing           0   0.00   0.0    0  0.0  0.00  0.00  0.00  0.00     8
  2 AUG   99 Germinate        0   0.00   0.0    0  0.0  0.00  0.00  0.00  0.00     9
  5 AUG  102 Emergence        2   0.00   0.9    0  5.0  0.00  0.00  0.00  0.00     1
 20 AUG  117 End Juveni      54   0.21   8.9    2  4.2  0.00  0.00  0.00  0.00     2
 27 AUG  124 Panicle In     349   0.90  12.3    5  1.4  0.10  0.47  0.00  0.00     3
 18 SEP  146 End Lf Gro    1005   0.98  21.7    9  0.9  0.76  0.80  0.00  0.00     4
 26 SEP  154 Anthesis      1280   0.76  21.7   10  0.8  0.70  0.30  0.00  0.00     4
 29 SEP  157 End Pan Gr    1343   0.67  21.7   10  0.8  0.87  0.04  0.00  0.00     5
 14 NOV  203 Maturity      1966   0.35  21.7   15  0.8  0.03  0.48  0.00  0.00     7
 14 NOV  203 Harvest       1966   0.35  21.7   15  0.8  0.00  0.00  0.00  0.00     7


*MAIN GROWTH AND DEVELOPMENT VARIABLES

@     VARIABLE                                         SIMULATED     MEASURED
      --------                                         ---------     --------
      Panicle Initiation day (dap)                           124          -99
      Anthesis day (dap)                                     154          -99
      Physiological maturity day (dap)                       203          -99
      Yield at harvest maturity (kg [dm]/ha)                 648          -99
      Number at maturity (no/m2)                            4348          -99
      Unit wt at maturity (g [dm]/unit)                   0.0149          -99
      Number at maturity (no/unit)                         434.8          -99
      Tops weight at maturity (kg [dm]/ha)                  1966          -99
      By-product produced (stalk) at maturity (kg[dm]/ha    1318          -99
      Leaf area index, maximum                              1.02          -99
      Harvest index at maturity                            0.329          -99
      Grain N at maturity (kg/ha)                             11          -99
      Tops N at maturity (kg/ha)                              15          -99
      Stem N at maturity (kg/ha)                               5          -99
      Grain N at maturity (%)                                1.6          -99
      Tops weight at anthesis (kg [dm]/ha)                  1257          -99
      Tops N at anthesis (kg/ha)                              10          -99
      Leaf number per stem at maturity                     21.70          -99
      Emergence day (dap)                                    102          -99


*ENVIRONMENTAL AND STRESS FACTORS

 |-----Development Phase------|--------------------------------------Environment--------------------------------------|-----------------Stress-----------------|
                              |---------------Average--------------|-----Cumulative-----|--------Count of days--------|          (0=Min, 1=Max Stress)         |
                         Time  Temp  Temp  Temp Solar Photop                Evapo    Pot TMIN TMIN TMAX TMAX TMAX RAIN|----Water----|---Nitrogen--|-Phosphorus-|
                         Span   Max   Min  Mean   Rad  [day]    CO2   Rain  Trans     ET   <    <    >    >    >    >   Photo         Photo         Photo
                         days    øC    øC    øC MJ/m2     hr    ppm     mm     mm     mm  0øC  2øC 30øC 32øC 34øC  0mm  synth Growth  synth Growth  synth Growth
----------------------------------------------------------------------------------------------------------------------------------------------------------------
 Emergence-End Juvenile    15  39.0  25.2  32.1  24.6  13.42  408.7   54.6   53.1  131.4    0    0   15   15   15    5  0.000  0.000  0.000  0.003  0.000  0.000
 End Juvenil-Panicle Ini    7  38.2  26.2  32.2  22.6  13.06  408.9    0.0   17.1   51.6    0    0    7    7    7    0  0.000  0.043  0.160  0.335  0.000  0.000
 Panicle Ini-End Lf Grow   22  40.1  23.1  31.6  24.3  12.53  408.9    0.0   40.4  180.1    0    0   22   22   22    0  0.607  0.738  0.584  0.820  0.000  0.000
 End Lf Grth-Beg Grn Fil   11  37.3  21.4  29.4  20.4  11.92  409.1   12.4   17.1   68.7    0    0   11   10   10    2  0.663  0.745  0.063  0.279  0.000  0.000
 Grain Filling Phase       45  27.5  13.3  20.4  16.1  10.91  409.3   92.7   97.3  169.6    0    0    9    3    2    6  0.034  0.045  0.271  0.491  0.000  0.000
   
 Planting to Harvest      204  36.2  20.0  28.1  23.8  12.95  408.7  178.8  259.4 1536.6    0    1  161  154  145   18  0.109  0.131  0.132  0.224  0.000  0.000
----------------------------------------------------------------------------------------------------------------------------------------------------------------


*Resource Productivity
 Growing season length: 204 days 

 Precipitation during growing season       178.8 mm[rain]
   Dry Matter Productivity                  1.10 kg[DM]/m3[rain]          =   11.0 kg[DM]/ha per mm[rain]
   Yield Productivity                       0.36 kg[grain yield]/m3[rain] =    3.6 kg[yield]/ha per mm[rain]

 Evapotranspiration during growing season  259.4 mm[ET]
   Dry Matter Productivity                  0.76 kg[DM]/m3[ET]            =    7.6 kg[DM]/ha per mm[ET]
   Yield Productivity                       0.25 kg[grain yield]/m3[ET]   =    2.5 kg[yield]/ha per mm[ET]

 Transpiration during growing season       100.5 mm[EP]
   Dry Matter Productivity                  1.96 kg[DM]/m3[EP]            =   19.6 kg[DM]/ha per mm[EP]
   Yield Productivity                       0.64 kg[grain yield]/m3[EP]   =    6.4 kg[yield]/ha per mm[EP]

 N uptake during growing season               20 kg[N uptake]/ha
   Dry Matter Productivity                  98.3 kg[DM]/kg[N uptake]
   Yield Productivity                       32.4 kg[yield]/kg[N uptake]

--------------------------------------------------------------------------------------------------------------

                   Sorghum YIELD :      648 kg/ha    [Dry weight] 

**************************************************************************************************************

*DSSAT Cropping System Model Ver. 4.8.0.027 -develop  JUN 30, 2022 07:20:22

*RUN   6        : TERRAREF-----S4_848       SGCER048 TERRAR01    6
 MODEL          : SGCER048 - Sorghum
 EXPERIMENT     : TERRAR01 SG
 DATA PATH      :
 TREATMENT  6   : TERRAREF-----S4_848       SGCER048


 CROP           : Sorghum          CULTIVAR : N.AMERICAN       ECOTYPE :IB0001
 STARTING DATE  : MAR 21 2018
 PLANTING DATE  : APR 25 2018      PLANTS/m2 :    10.0    ROW SPACING :  72.cm
 WEATHER        : AZMC   2018
 SOIL           : AZMC920001     TEXTURE : CL    - TRIX CLAY LOAM
 SOIL INITIAL C : DEPTH:210cm EXTR. H2O:246.3mm  NO3:  0.0kg/ha  NH4:  0.0kg/ha
 WATER BALANCE  : IRRIGATE ON REPORTED DATE(S)
 IRRIGATION     :        0 mm IN     0 APPLICATIONS
 NITROGEN BAL.  : SOIL-N & N-UPTAKE SIMULATION; NO N-FIXATION
 N-FERTILIZER   :        0 kg/ha IN     0 APPLICATIONS
 RESIDUE/MANURE : INITIAL :     0 kg/ha ;       0 kg/ha IN     0 APPLICATIONS
 ENVIRONM. OPT. : DAYL=    0.00  SRAD=    0.00  TMAX=    0.00  TMIN=    0.00
                  RAIN=    0.00  CO2 =    0.00  DEW =    0.00  WIND=    0.00
 SIMULATION OPT : WATER   :Y  NITROGEN:Y  N-FIX:N  PHOSPH :N  PESTS  :N
                  PHOTO   :C  ET      :R  INFIL:S  HYDROL :R  SOM    :P
                  CO2 408ppm  NSWIT   :1  EVAP :S  SOIL   :2  STEMP  :D
 MANAGEMENT OPT : PLANTING:R  IRRIG   :R  FERT :R  RESIDUE:R  HARVEST:M
                  WEATHER :M  TILLAGE :Y

*SUMMARY OF SOIL AND GENETIC INPUT PARAMETERS

   SOIL LOWER UPPER   SAT  EXTR  INIT   ROOT   BULK     pH    NO3    NH4    ORG
  DEPTH LIMIT LIMIT    SW    SW    SW   DIST   DENS                          C
   cm   cm3/cm3    cm3/cm3    cm3/cm3         g/cm3         ugN/g  ugN/g     %
-------------------------------------------------------------------------------
  0-  5 0.202 0.320 0.417 0.118 0.320   1.00   1.31   8.50   0.00   0.00   0.41
  5- 15 0.201 0.319 0.424 0.118 0.319   0.74   1.27   8.50   0.00   0.00   0.35
 15- 30 0.199 0.319 0.424 0.120 0.319   0.61   1.27   8.50   0.00   0.00   0.27
 30- 40 0.198 0.318 0.419 0.120 0.318   0.45   1.30   8.60   0.00   0.00   0.24
 40- 50 0.198 0.318 0.419 0.120 0.318   0.45   1.30   8.60   0.00   0.00   0.24
 50- 60 0.198 0.318 0.387 0.120 0.318   0.30   1.47   8.60   0.00   0.00   0.16
 60- 70 0.198 0.318 0.387 0.120 0.318   0.30   1.47   8.60   0.00   0.00   0.16
 70- 90 0.186 0.299 0.359 0.113 0.299   0.18   1.57   8.60   0.00   0.00   0.30
 90-110 0.159 0.275 0.347 0.116 0.275   0.10   1.57   8.60   0.00   0.00   0.10
110-120 0.159 0.275 0.347 0.116 0.275   0.10   1.57   8.60   0.00   0.00   0.10
120-130 0.159 0.275 0.347 0.116 0.275   0.10   1.57   8.60   0.00   0.00   0.10
130-150 0.136 0.254 0.336 0.118 0.254   0.05   1.57   8.60   0.00   0.00 -99.00
150-170 0.136 0.254 0.336 0.118 0.254   0.00   1.57   8.60   0.00   0.00 -99.00
170-190 0.128 0.244 0.331 0.116 0.244   0.00   1.57   8.60   0.00   0.00 -99.00
190-210 0.128 0.244 0.331 0.116 0.244   0.00   1.57   8.60   0.00   0.00 -99.00

TOT-210  34.6  59.2  76.5  24.6  59.2  <--cm   -  kg/ha-->    0.0    0.0  38918
SOIL ALBEDO    : 0.20      EVAPORATION LIMIT :12.00         MIN. FACTOR  : 1.00
RUNOFF CURVE # :70.00      DRAINAGE RATE     : 0.29         FERT. FACTOR : 0.90

 Sorghum          CULTIVAR: 990001-N.AMERICAN         ECOTYPE: IB0001
 P1     :360.0  P2O    :12.50  P2R    :  30.0  P5     :540.00
 G1     :  0.0  G2     : 6.00  PHINT  : 49.00  P3     : 152.5  P4    :  81.5


*SIMULATED CROP AND SOIL STATUS AT MAIN DEVELOPMENT STAGES

 RUN NO.     6     TERRAREF-----S4_848     

        CROP GROWTH     BIOMASS         LEAF   CROP N     STRESS      STRESS                                           
   DATE  AGE STAGE        kg/ha    LAI   NUM  kg/ha  %   H2O  Nitr Phos1 Phos2  RSTG                                   
 ------  --- ----------   -----  -----  ----  ---  ---  ----  ----  ----  ----  ----                                   
                                                                                    
 25 APR    0 Sowing           0   0.00   0.0    0  0.0  0.00  0.00  0.00  0.00     8
  2 AUG   99 Germinate        0   0.00   0.0    0  0.0  0.00  0.00  0.00  0.00     9
  5 AUG  102 Emergence        2   0.00   0.9    0  5.0  0.00  0.00  0.00  0.00     1
 20 AUG  117 End Juveni      54   0.21   8.9    2  4.2  0.00  0.00  0.00  0.00     2
 27 AUG  124 Panicle In     349   0.90  12.3    5  1.4  0.10  0.47  0.00  0.00     3
 18 SEP  146 End Lf Gro    1005   0.98  21.7    9  0.9  0.76  0.80  0.00  0.00     4
 26 SEP  154 Anthesis      1280   0.76  21.7   10  0.8  0.70  0.30  0.00  0.00     4
 29 SEP  157 End Pan Gr    1343   0.67  21.7   10  0.8  0.87  0.04  0.00  0.00     5
 14 NOV  203 Maturity      1966   0.35  21.7   15  0.8  0.03  0.48  0.00  0.00     7
 14 NOV  203 Harvest       1966   0.35  21.7   15  0.8  0.00  0.00  0.00  0.00     7


*MAIN GROWTH AND DEVELOPMENT VARIABLES

@     VARIABLE                                         SIMULATED     MEASURED
      --------                                         ---------     --------
      Panicle Initiation day (dap)                           124          -99
      Anthesis day (dap)                                     154          -99
      Physiological maturity day (dap)                       203          -99
      Yield at harvest maturity (kg [dm]/ha)                 648          -99
      Number at maturity (no/m2)                            4348          -99
      Unit wt at maturity (g [dm]/unit)                   0.0149          -99
      Number at maturity (no/unit)                         434.8          -99
      Tops weight at maturity (kg [dm]/ha)                  1966          -99
      By-product produced (stalk) at maturity (kg[dm]/ha    1318          -99
      Leaf area index, maximum                              1.02          -99
      Harvest index at maturity                            0.329          -99
      Grain N at maturity (kg/ha)                             11          -99
      Tops N at maturity (kg/ha)                              15          -99
      Stem N at maturity (kg/ha)                               5          -99
      Grain N at maturity (%)                                1.6          -99
      Tops weight at anthesis (kg [dm]/ha)                  1257          -99
      Tops N at anthesis (kg/ha)                              10          -99
      Leaf number per stem at maturity                     21.70          -99
      Emergence day (dap)                                    102          -99


*ENVIRONMENTAL AND STRESS FACTORS

 |-----Development Phase------|--------------------------------------Environment--------------------------------------|-----------------Stress-----------------|
                              |---------------Average--------------|-----Cumulative-----|--------Count of days--------|          (0=Min, 1=Max Stress)         |
                         Time  Temp  Temp  Temp Solar Photop                Evapo    Pot TMIN TMIN TMAX TMAX TMAX RAIN|----Water----|---Nitrogen--|-Phosphorus-|
                         Span   Max   Min  Mean   Rad  [day]    CO2   Rain  Trans     ET   <    <    >    >    >    >   Photo         Photo         Photo
                         days    øC    øC    øC MJ/m2     hr    ppm     mm     mm     mm  0øC  2øC 30øC 32øC 34øC  0mm  synth Growth  synth Growth  synth Growth
----------------------------------------------------------------------------------------------------------------------------------------------------------------
 Emergence-End Juvenile    15  39.0  25.2  32.1  24.6  13.42  408.7   54.6   53.1  131.4    0    0   15   15   15    5  0.000  0.000  0.000  0.003  0.000  0.000
 End Juvenil-Panicle Ini    7  38.2  26.2  32.2  22.6  13.06  408.9    0.0   17.1   51.6    0    0    7    7    7    0  0.000  0.043  0.160  0.335  0.000  0.000
 Panicle Ini-End Lf Grow   22  40.1  23.1  31.6  24.3  12.53  408.9    0.0   40.4  180.1    0    0   22   22   22    0  0.607  0.738  0.584  0.820  0.000  0.000
 End Lf Grth-Beg Grn Fil   11  37.3  21.4  29.4  20.4  11.92  409.1   12.4   17.1   68.7    0    0   11   10   10    2  0.663  0.745  0.063  0.279  0.000  0.000
 Grain Filling Phase       45  27.5  13.3  20.4  16.1  10.91  409.3   92.7   97.3  169.6    0    0    9    3    2    6  0.034  0.045  0.271  0.491  0.000  0.000
   
 Planting to Harvest      204  36.2  20.0  28.1  23.8  12.95  408.7  178.8  259.4 1536.6    0    1  161  154  145   18  0.109  0.131  0.132  0.224  0.000  0.000
----------------------------------------------------------------------------------------------------------------------------------------------------------------


*Resource Productivity
 Growing season length: 204 days 

 Precipitation during growing season       178.8 mm[rain]
   Dry Matter Productivity                  1.10 kg[DM]/m3[rain]          =   11.0 kg[DM]/ha per mm[rain]
   Yield Productivity                       0.36 kg[grain yield]/m3[rain] =    3.6 kg[yield]/ha per mm[rain]

 Evapotranspiration during growing season  259.4 mm[ET]
   Dry Matter Productivity                  0.76 kg[DM]/m3[ET]            =    7.6 kg[DM]/ha per mm[ET]
   Yield Productivity                       0.25 kg[grain yield]/m3[ET]   =    2.5 kg[yield]/ha per mm[ET]

 Transpiration during growing season       100.5 mm[EP]
   Dry Matter Productivity                  1.96 kg[DM]/m3[EP]            =   19.6 kg[DM]/ha per mm[EP]
   Yield Productivity                       0.64 kg[grain yield]/m3[EP]   =    6.4 kg[yield]/ha per mm[EP]

 N uptake during growing season               20 kg[N uptake]/ha
   Dry Matter Productivity                  98.3 kg[DM]/kg[N uptake]
   Yield Productivity                       32.4 kg[yield]/kg[N uptake]

--------------------------------------------------------------------------------------------------------------

                   Sorghum YIELD :      648 kg/ha    [Dry weight] 

**************************************************************************************************************

*DSSAT Cropping System Model Ver. 4.8.0.027 -develop  JUN 30, 2022 07:20:22

*RUN   7        : TERRAREF-----S4_856       SGCER048 TERRAR01    7
 MODEL          : SGCER048 - Sorghum
 EXPERIMENT     : TERRAR01 SG
 DATA PATH      :
 TREATMENT  7   : TERRAREF-----S4_856       SGCER048


 CROP           : Sorghum          CULTIVAR : N.AMERICAN       ECOTYPE :IB0001
 STARTING DATE  : MAR 21 2018
 PLANTING DATE  : APR 25 2018      PLANTS/m2 :    10.0    ROW SPACING :  72.cm
 WEATHER        : AZMC   2018
 SOIL           : AZMC920001     TEXTURE : CL    - TRIX CLAY LOAM
 SOIL INITIAL C : DEPTH:210cm EXTR. H2O:246.3mm  NO3:  0.0kg/ha  NH4:  0.0kg/ha
 WATER BALANCE  : IRRIGATE ON REPORTED DATE(S)
 IRRIGATION     :        0 mm IN     0 APPLICATIONS
 NITROGEN BAL.  : SOIL-N & N-UPTAKE SIMULATION; NO N-FIXATION
 N-FERTILIZER   :        0 kg/ha IN     0 APPLICATIONS
 RESIDUE/MANURE : INITIAL :     0 kg/ha ;       0 kg/ha IN     0 APPLICATIONS
 ENVIRONM. OPT. : DAYL=    0.00  SRAD=    0.00  TMAX=    0.00  TMIN=    0.00
                  RAIN=    0.00  CO2 =    0.00  DEW =    0.00  WIND=    0.00
 SIMULATION OPT : WATER   :Y  NITROGEN:Y  N-FIX:N  PHOSPH :N  PESTS  :N
                  PHOTO   :C  ET      :R  INFIL:S  HYDROL :R  SOM    :P
                  CO2 408ppm  NSWIT   :1  EVAP :S  SOIL   :2  STEMP  :D
 MANAGEMENT OPT : PLANTING:R  IRRIG   :R  FERT :R  RESIDUE:R  HARVEST:M
                  WEATHER :M  TILLAGE :Y

*SUMMARY OF SOIL AND GENETIC INPUT PARAMETERS

   SOIL LOWER UPPER   SAT  EXTR  INIT   ROOT   BULK     pH    NO3    NH4    ORG
  DEPTH LIMIT LIMIT    SW    SW    SW   DIST   DENS                          C
   cm   cm3/cm3    cm3/cm3    cm3/cm3         g/cm3         ugN/g  ugN/g     %
-------------------------------------------------------------------------------
  0-  5 0.202 0.320 0.417 0.118 0.320   1.00   1.31   8.50   0.00   0.00   0.41
  5- 15 0.201 0.319 0.424 0.118 0.319   0.74   1.27   8.50   0.00   0.00   0.35
 15- 30 0.199 0.319 0.424 0.120 0.319   0.61   1.27   8.50   0.00   0.00   0.27
 30- 40 0.198 0.318 0.419 0.120 0.318   0.45   1.30   8.60   0.00   0.00   0.24
 40- 50 0.198 0.318 0.419 0.120 0.318   0.45   1.30   8.60   0.00   0.00   0.24
 50- 60 0.198 0.318 0.387 0.120 0.318   0.30   1.47   8.60   0.00   0.00   0.16
 60- 70 0.198 0.318 0.387 0.120 0.318   0.30   1.47   8.60   0.00   0.00   0.16
 70- 90 0.186 0.299 0.359 0.113 0.299   0.18   1.57   8.60   0.00   0.00   0.30
 90-110 0.159 0.275 0.347 0.116 0.275   0.10   1.57   8.60   0.00   0.00   0.10
110-120 0.159 0.275 0.347 0.116 0.275   0.10   1.57   8.60   0.00   0.00   0.10
120-130 0.159 0.275 0.347 0.116 0.275   0.10   1.57   8.60   0.00   0.00   0.10
130-150 0.136 0.254 0.336 0.118 0.254   0.05   1.57   8.60   0.00   0.00 -99.00
150-170 0.136 0.254 0.336 0.118 0.254   0.00   1.57   8.60   0.00   0.00 -99.00
170-190 0.128 0.244 0.331 0.116 0.244   0.00   1.57   8.60   0.00   0.00 -99.00
190-210 0.128 0.244 0.331 0.116 0.244   0.00   1.57   8.60   0.00   0.00 -99.00

TOT-210  34.6  59.2  76.5  24.6  59.2  <--cm   -  kg/ha-->    0.0    0.0  38918
SOIL ALBEDO    : 0.20      EVAPORATION LIMIT :12.00         MIN. FACTOR  : 1.00
RUNOFF CURVE # :70.00      DRAINAGE RATE     : 0.29         FERT. FACTOR : 0.90

 Sorghum          CULTIVAR: 990001-N.AMERICAN         ECOTYPE: IB0001
 P1     :360.0  P2O    :12.50  P2R    :  30.0  P5     :540.00
 G1     :  0.0  G2     : 6.00  PHINT  : 49.00  P3     : 152.5  P4    :  81.5


*SIMULATED CROP AND SOIL STATUS AT MAIN DEVELOPMENT STAGES

 RUN NO.     7     TERRAREF-----S4_856     

        CROP GROWTH     BIOMASS         LEAF   CROP N     STRESS      STRESS                                           
   DATE  AGE STAGE        kg/ha    LAI   NUM  kg/ha  %   H2O  Nitr Phos1 Phos2  RSTG                                   
 ------  --- ----------   -----  -----  ----  ---  ---  ----  ----  ----  ----  ----                                   
                                                                                    
 25 APR    0 Sowing           0   0.00   0.0    0  0.0  0.00  0.00  0.00  0.00     8
  2 AUG   99 Germinate        0   0.00   0.0    0  0.0  0.00  0.00  0.00  0.00     9
  5 AUG  102 Emergence        2   0.00   0.9    0  5.0  0.00  0.00  0.00  0.00     1
 20 AUG  117 End Juveni      54   0.21   8.9    2  4.2  0.00  0.00  0.00  0.00     2
 27 AUG  124 Panicle In     349   0.90  12.3    5  1.4  0.10  0.47  0.00  0.00     3
 18 SEP  146 End Lf Gro    1005   0.98  21.7    9  0.9  0.76  0.80  0.00  0.00     4
 26 SEP  154 Anthesis      1280   0.76  21.7   10  0.8  0.70  0.30  0.00  0.00     4
 29 SEP  157 End Pan Gr    1343   0.67  21.7   10  0.8  0.87  0.04  0.00  0.00     5
 14 NOV  203 Maturity      1966   0.35  21.7   15  0.8  0.03  0.48  0.00  0.00     7
 14 NOV  203 Harvest       1966   0.35  21.7   15  0.8  0.00  0.00  0.00  0.00     7


*MAIN GROWTH AND DEVELOPMENT VARIABLES

@     VARIABLE                                         SIMULATED     MEASURED
      --------                                         ---------     --------
      Panicle Initiation day (dap)                           124          -99
      Anthesis day (dap)                                     154          -99
      Physiological maturity day (dap)                       203          -99
      Yield at harvest maturity (kg [dm]/ha)                 648          -99
      Number at maturity (no/m2)                            4348          -99
      Unit wt at maturity (g [dm]/unit)                   0.0149          -99
      Number at maturity (no/unit)                         434.8          -99
      Tops weight at maturity (kg [dm]/ha)                  1966          -99
      By-product produced (stalk) at maturity (kg[dm]/ha    1318          -99
      Leaf area index, maximum                              1.02          -99
      Harvest index at maturity                            0.329          -99
      Grain N at maturity (kg/ha)                             11          -99
      Tops N at maturity (kg/ha)                              15          -99
      Stem N at maturity (kg/ha)                               5          -99
      Grain N at maturity (%)                                1.6          -99
      Tops weight at anthesis (kg [dm]/ha)                  1257          -99
      Tops N at anthesis (kg/ha)                              10          -99
      Leaf number per stem at maturity                     21.70          -99
      Emergence day (dap)                                    102          -99


*ENVIRONMENTAL AND STRESS FACTORS

 |-----Development Phase------|--------------------------------------Environment--------------------------------------|-----------------Stress-----------------|
                              |---------------Average--------------|-----Cumulative-----|--------Count of days--------|          (0=Min, 1=Max Stress)         |
                         Time  Temp  Temp  Temp Solar Photop                Evapo    Pot TMIN TMIN TMAX TMAX TMAX RAIN|----Water----|---Nitrogen--|-Phosphorus-|
                         Span   Max   Min  Mean   Rad  [day]    CO2   Rain  Trans     ET   <    <    >    >    >    >   Photo         Photo         Photo
                         days    øC    øC    øC MJ/m2     hr    ppm     mm     mm     mm  0øC  2øC 30øC 32øC 34øC  0mm  synth Growth  synth Growth  synth Growth
----------------------------------------------------------------------------------------------------------------------------------------------------------------
 Emergence-End Juvenile    15  39.0  25.2  32.1  24.6  13.42  408.7   54.6   53.1  131.4    0    0   15   15   15    5  0.000  0.000  0.000  0.003  0.000  0.000
 End Juvenil-Panicle Ini    7  38.2  26.2  32.2  22.6  13.06  408.9    0.0   17.1   51.6    0    0    7    7    7    0  0.000  0.043  0.160  0.335  0.000  0.000
 Panicle Ini-End Lf Grow   22  40.1  23.1  31.6  24.3  12.53  408.9    0.0   40.4  180.1    0    0   22   22   22    0  0.607  0.738  0.584  0.820  0.000  0.000
 End Lf Grth-Beg Grn Fil   11  37.3  21.4  29.4  20.4  11.92  409.1   12.4   17.1   68.7    0    0   11   10   10    2  0.663  0.745  0.063  0.279  0.000  0.000
 Grain Filling Phase       45  27.5  13.3  20.4  16.1  10.91  409.3   92.7   97.3  169.6    0    0    9    3    2    6  0.034  0.045  0.271  0.491  0.000  0.000
   
 Planting to Harvest      204  36.2  20.0  28.1  23.8  12.95  408.7  178.8  259.4 1536.6    0    1  161  154  145   18  0.109  0.131  0.132  0.224  0.000  0.000
----------------------------------------------------------------------------------------------------------------------------------------------------------------


*Resource Productivity
 Growing season length: 204 days 

 Precipitation during growing season       178.8 mm[rain]
   Dry Matter Productivity                  1.10 kg[DM]/m3[rain]          =   11.0 kg[DM]/ha per mm[rain]
   Yield Productivity                       0.36 kg[grain yield]/m3[rain] =    3.6 kg[yield]/ha per mm[rain]

 Evapotranspiration during growing season  259.4 mm[ET]
   Dry Matter Productivity                  0.76 kg[DM]/m3[ET]            =    7.6 kg[DM]/ha per mm[ET]
   Yield Productivity                       0.25 kg[grain yield]/m3[ET]   =    2.5 kg[yield]/ha per mm[ET]

 Transpiration during growing season       100.5 mm[EP]
   Dry Matter Productivity                  1.96 kg[DM]/m3[EP]            =   19.6 kg[DM]/ha per mm[EP]
   Yield Productivity                       0.64 kg[grain yield]/m3[EP]   =    6.4 kg[yield]/ha per mm[EP]

 N uptake during growing season               20 kg[N uptake]/ha
   Dry Matter Productivity                  98.3 kg[DM]/kg[N uptake]
   Yield Productivity                       32.4 kg[yield]/kg[N uptake]

--------------------------------------------------------------------------------------------------------------

                   Sorghum YIELD :      648 kg/ha    [Dry weight] 

**************************************************************************************************************

*DSSAT Cropping System Model Ver. 4.8.0.027 -develop  JUN 30, 2022 07:20:23

*RUN   8        : TERRAREF-----S4_864       SGCER048 TERRAR01    8
 MODEL          : SGCER048 - Sorghum
 EXPERIMENT     : TERRAR01 SG
 DATA PATH      :
 TREATMENT  8   : TERRAREF-----S4_864       SGCER048


 CROP           : Sorghum          CULTIVAR : N.AMERICAN       ECOTYPE :IB0001
 STARTING DATE  : MAR 21 2018
 PLANTING DATE  : APR 25 2018      PLANTS/m2 :    10.0    ROW SPACING :  72.cm
 WEATHER        : AZMC   2018
 SOIL           : AZMC920001     TEXTURE : CL    - TRIX CLAY LOAM
 SOIL INITIAL C : DEPTH:210cm EXTR. H2O:246.3mm  NO3:  0.0kg/ha  NH4:  0.0kg/ha
 WATER BALANCE  : IRRIGATE ON REPORTED DATE(S)
 IRRIGATION     :        0 mm IN     0 APPLICATIONS
 NITROGEN BAL.  : SOIL-N & N-UPTAKE SIMULATION; NO N-FIXATION
 N-FERTILIZER   :        0 kg/ha IN     0 APPLICATIONS
 RESIDUE/MANURE : INITIAL :     0 kg/ha ;       0 kg/ha IN     0 APPLICATIONS
 ENVIRONM. OPT. : DAYL=    0.00  SRAD=    0.00  TMAX=    0.00  TMIN=    0.00
                  RAIN=    0.00  CO2 =    0.00  DEW =    0.00  WIND=    0.00
 SIMULATION OPT : WATER   :Y  NITROGEN:Y  N-FIX:N  PHOSPH :N  PESTS  :N
                  PHOTO   :C  ET      :R  INFIL:S  HYDROL :R  SOM    :P
                  CO2 408ppm  NSWIT   :1  EVAP :S  SOIL   :2  STEMP  :D
 MANAGEMENT OPT : PLANTING:R  IRRIG   :R  FERT :R  RESIDUE:R  HARVEST:M
                  WEATHER :M  TILLAGE :Y

*SUMMARY OF SOIL AND GENETIC INPUT PARAMETERS

   SOIL LOWER UPPER   SAT  EXTR  INIT   ROOT   BULK     pH    NO3    NH4    ORG
  DEPTH LIMIT LIMIT    SW    SW    SW   DIST   DENS                          C
   cm   cm3/cm3    cm3/cm3    cm3/cm3         g/cm3         ugN/g  ugN/g     %
-------------------------------------------------------------------------------
  0-  5 0.202 0.320 0.417 0.118 0.320   1.00   1.31   8.50   0.00   0.00   0.41
  5- 15 0.201 0.319 0.424 0.118 0.319   0.74   1.27   8.50   0.00   0.00   0.35
 15- 30 0.199 0.319 0.424 0.120 0.319   0.61   1.27   8.50   0.00   0.00   0.27
 30- 40 0.198 0.318 0.419 0.120 0.318   0.45   1.30   8.60   0.00   0.00   0.24
 40- 50 0.198 0.318 0.419 0.120 0.318   0.45   1.30   8.60   0.00   0.00   0.24
 50- 60 0.198 0.318 0.387 0.120 0.318   0.30   1.47   8.60   0.00   0.00   0.16
 60- 70 0.198 0.318 0.387 0.120 0.318   0.30   1.47   8.60   0.00   0.00   0.16
 70- 90 0.186 0.299 0.359 0.113 0.299   0.18   1.57   8.60   0.00   0.00   0.30
 90-110 0.159 0.275 0.347 0.116 0.275   0.10   1.57   8.60   0.00   0.00   0.10
110-120 0.159 0.275 0.347 0.116 0.275   0.10   1.57   8.60   0.00   0.00   0.10
120-130 0.159 0.275 0.347 0.116 0.275   0.10   1.57   8.60   0.00   0.00   0.10
130-150 0.136 0.254 0.336 0.118 0.254   0.05   1.57   8.60   0.00   0.00 -99.00
150-170 0.136 0.254 0.336 0.118 0.254   0.00   1.57   8.60   0.00   0.00 -99.00
170-190 0.128 0.244 0.331 0.116 0.244   0.00   1.57   8.60   0.00   0.00 -99.00
190-210 0.128 0.244 0.331 0.116 0.244   0.00   1.57   8.60   0.00   0.00 -99.00

TOT-210  34.6  59.2  76.5  24.6  59.2  <--cm   -  kg/ha-->    0.0    0.0  38918
SOIL ALBEDO    : 0.20      EVAPORATION LIMIT :12.00         MIN. FACTOR  : 1.00
RUNOFF CURVE # :70.00      DRAINAGE RATE     : 0.29         FERT. FACTOR : 0.90

 Sorghum          CULTIVAR: 990001-N.AMERICAN         ECOTYPE: IB0001
 P1     :360.0  P2O    :12.50  P2R    :  30.0  P5     :540.00
 G1     :  0.0  G2     : 6.00  PHINT  : 49.00  P3     : 152.5  P4    :  81.5


*SIMULATED CROP AND SOIL STATUS AT MAIN DEVELOPMENT STAGES

 RUN NO.     8     TERRAREF-----S4_864     

        CROP GROWTH     BIOMASS         LEAF   CROP N     STRESS      STRESS                                           
   DATE  AGE STAGE        kg/ha    LAI   NUM  kg/ha  %   H2O  Nitr Phos1 Phos2  RSTG                                   
 ------  --- ----------   -----  -----  ----  ---  ---  ----  ----  ----  ----  ----                                   
                                                                                    
 25 APR    0 Sowing           0   0.00   0.0    0  0.0  0.00  0.00  0.00  0.00     8
  2 AUG   99 Germinate        0   0.00   0.0    0  0.0  0.00  0.00  0.00  0.00     9
  5 AUG  102 Emergence        2   0.00   0.9    0  5.0  0.00  0.00  0.00  0.00     1
 20 AUG  117 End Juveni      54   0.21   8.9    2  4.2  0.00  0.00  0.00  0.00     2
 27 AUG  124 Panicle In     349   0.90  12.3    5  1.4  0.10  0.47  0.00  0.00     3
 18 SEP  146 End Lf Gro    1005   0.98  21.7    9  0.9  0.76  0.80  0.00  0.00     4
 26 SEP  154 Anthesis      1280   0.76  21.7   10  0.8  0.70  0.30  0.00  0.00     4
 29 SEP  157 End Pan Gr    1343   0.67  21.7   10  0.8  0.87  0.04  0.00  0.00     5
 14 NOV  203 Maturity      1966   0.35  21.7   15  0.8  0.03  0.48  0.00  0.00     7
 14 NOV  203 Harvest       1966   0.35  21.7   15  0.8  0.00  0.00  0.00  0.00     7


*MAIN GROWTH AND DEVELOPMENT VARIABLES

@     VARIABLE                                         SIMULATED     MEASURED
      --------                                         ---------     --------
      Panicle Initiation day (dap)                           124          -99
      Anthesis day (dap)                                     154          -99
      Physiological maturity day (dap)                       203          -99
      Yield at harvest maturity (kg [dm]/ha)                 648          -99
      Number at maturity (no/m2)                            4348          -99
      Unit wt at maturity (g [dm]/unit)                   0.0149          -99
      Number at maturity (no/unit)                         434.8          -99
      Tops weight at maturity (kg [dm]/ha)                  1966          -99
      By-product produced (stalk) at maturity (kg[dm]/ha    1318          -99
      Leaf area index, maximum                              1.02          -99
      Harvest index at maturity                            0.329          -99
      Grain N at maturity (kg/ha)                             11          -99
      Tops N at maturity (kg/ha)                              15          -99
      Stem N at maturity (kg/ha)                               5          -99
      Grain N at maturity (%)                                1.6          -99
      Tops weight at anthesis (kg [dm]/ha)                  1257          -99
      Tops N at anthesis (kg/ha)                              10          -99
      Leaf number per stem at maturity                     21.70          -99
      Emergence day (dap)                                    102          -99


*ENVIRONMENTAL AND STRESS FACTORS

 |-----Development Phase------|--------------------------------------Environment--------------------------------------|-----------------Stress-----------------|
                              |---------------Average--------------|-----Cumulative-----|--------Count of days--------|          (0=Min, 1=Max Stress)         |
                         Time  Temp  Temp  Temp Solar Photop                Evapo    Pot TMIN TMIN TMAX TMAX TMAX RAIN|----Water----|---Nitrogen--|-Phosphorus-|
                         Span   Max   Min  Mean   Rad  [day]    CO2   Rain  Trans     ET   <    <    >    >    >    >   Photo         Photo         Photo
                         days    øC    øC    øC MJ/m2     hr    ppm     mm     mm     mm  0øC  2øC 30øC 32øC 34øC  0mm  synth Growth  synth Growth  synth Growth
----------------------------------------------------------------------------------------------------------------------------------------------------------------
 Emergence-End Juvenile    15  39.0  25.2  32.1  24.6  13.42  408.7   54.6   53.1  131.4    0    0   15   15   15    5  0.000  0.000  0.000  0.003  0.000  0.000
 End Juvenil-Panicle Ini    7  38.2  26.2  32.2  22.6  13.06  408.9    0.0   17.1   51.6    0    0    7    7    7    0  0.000  0.043  0.160  0.335  0.000  0.000
 Panicle Ini-End Lf Grow   22  40.1  23.1  31.6  24.3  12.53  408.9    0.0   40.4  180.1    0    0   22   22   22    0  0.607  0.738  0.584  0.820  0.000  0.000
 End Lf Grth-Beg Grn Fil   11  37.3  21.4  29.4  20.4  11.92  409.1   12.4   17.1   68.7    0    0   11   10   10    2  0.663  0.745  0.063  0.279  0.000  0.000
 Grain Filling Phase       45  27.5  13.3  20.4  16.1  10.91  409.3   92.7   97.3  169.6    0    0    9    3    2    6  0.034  0.045  0.271  0.491  0.000  0.000
   
 Planting to Harvest      204  36.2  20.0  28.1  23.8  12.95  408.7  178.8  259.4 1536.6    0    1  161  154  145   18  0.109  0.131  0.132  0.224  0.000  0.000
----------------------------------------------------------------------------------------------------------------------------------------------------------------


*Resource Productivity
 Growing season length: 204 days 

 Precipitation during growing season       178.8 mm[rain]
   Dry Matter Productivity                  1.10 kg[DM]/m3[rain]          =   11.0 kg[DM]/ha per mm[rain]
   Yield Productivity                       0.36 kg[grain yield]/m3[rain] =    3.6 kg[yield]/ha per mm[rain]

 Evapotranspiration during growing season  259.4 mm[ET]
   Dry Matter Productivity                  0.76 kg[DM]/m3[ET]            =    7.6 kg[DM]/ha per mm[ET]
   Yield Productivity                       0.25 kg[grain yield]/m3[ET]   =    2.5 kg[yield]/ha per mm[ET]

 Transpiration during growing season       100.5 mm[EP]
   Dry Matter Productivity                  1.96 kg[DM]/m3[EP]            =   19.6 kg[DM]/ha per mm[EP]
   Yield Productivity                       0.64 kg[grain yield]/m3[EP]   =    6.4 kg[yield]/ha per mm[EP]

 N uptake during growing season               20 kg[N uptake]/ha
   Dry Matter Productivity                  98.3 kg[DM]/kg[N uptake]
   Yield Productivity                       32.4 kg[yield]/kg[N uptake]

[...]

*RUN 399        : TERRAREF-----S4_3992      SGCER048 TERRAR01  399
 MODEL          : SGCER048 - Sorghum
 EXPERIMENT     : TERRAR01 SG
 DATA PATH      :
 TREATMENT399   : TERRAREF-----S4_3992      SGCER048


 CROP           : Sorghum          CULTIVAR : N.AMERICAN       ECOTYPE :IB0001
 STARTING DATE  : MAR 21 2018
 PLANTING DATE  : APR 25 2018      PLANTS/m2 :    10.0    ROW SPACING :  72.cm
 WEATHER        : AZMC   2018
 SOIL           : AZMC920001     TEXTURE : CL    - TRIX CLAY LOAM
 SOIL INITIAL C : DEPTH:210cm EXTR. H2O:246.3mm  NO3:  0.0kg/ha  NH4:  0.0kg/ha
 WATER BALANCE  : IRRIGATE ON REPORTED DATE(S)
 IRRIGATION     :        0 mm IN     0 APPLICATIONS
 NITROGEN BAL.  : SOIL-N & N-UPTAKE SIMULATION; NO N-FIXATION
 N-FERTILIZER   :        0 kg/ha IN     0 APPLICATIONS
 RESIDUE/MANURE : INITIAL :     0 kg/ha ;       0 kg/ha IN     0 APPLICATIONS
 ENVIRONM. OPT. : DAYL=    0.00  SRAD=    0.00  TMAX=    0.00  TMIN=    0.00
                  RAIN=    0.00  CO2 =    0.00  DEW =    0.00  WIND=    0.00
 SIMULATION OPT : WATER   :Y  NITROGEN:Y  N-FIX:N  PHOSPH :N  PESTS  :N
                  PHOTO   :C  ET      :R  INFIL:S  HYDROL :R  SOM    :P
                  CO2 408ppm  NSWIT   :1  EVAP :S  SOIL   :2  STEMP  :D
 MANAGEMENT OPT : PLANTING:R  IRRIG   :R  FERT :R  RESIDUE:R  HARVEST:M
                  WEATHER :M  TILLAGE :Y

*SUMMARY OF SOIL AND GENETIC INPUT PARAMETERS

   SOIL LOWER UPPER   SAT  EXTR  INIT   ROOT   BULK     pH    NO3    NH4    ORG
  DEPTH LIMIT LIMIT    SW    SW    SW   DIST   DENS                          C
   cm   cm3/cm3    cm3/cm3    cm3/cm3         g/cm3         ugN/g  ugN/g     %
-------------------------------------------------------------------------------
  0-  5 0.202 0.320 0.417 0.118 0.320   1.00   1.31   8.50   0.00   0.00   0.41
  5- 15 0.201 0.319 0.424 0.118 0.319   0.74   1.27   8.50   0.00   0.00   0.35
 15- 30 0.199 0.319 0.424 0.120 0.319   0.61   1.27   8.50   0.00   0.00   0.27
 30- 40 0.198 0.318 0.419 0.120 0.318   0.45   1.30   8.60   0.00   0.00   0.24
 40- 50 0.198 0.318 0.419 0.120 0.318   0.45   1.30   8.60   0.00   0.00   0.24
 50- 60 0.198 0.318 0.387 0.120 0.318   0.30   1.47   8.60   0.00   0.00   0.16
 60- 70 0.198 0.318 0.387 0.120 0.318   0.30   1.47   8.60   0.00   0.00   0.16
 70- 90 0.186 0.299 0.359 0.113 0.299   0.18   1.57   8.60   0.00   0.00   0.30
 90-110 0.159 0.275 0.347 0.116 0.275   0.10   1.57   8.60   0.00   0.00   0.10
110-120 0.159 0.275 0.347 0.116 0.275   0.10   1.57   8.60   0.00   0.00   0.10
120-130 0.159 0.275 0.347 0.116 0.275   0.10   1.57   8.60   0.00   0.00   0.10
130-150 0.136 0.254 0.336 0.118 0.254   0.05   1.57   8.60   0.00   0.00 -99.00
150-170 0.136 0.254 0.336 0.118 0.254   0.00   1.57   8.60   0.00   0.00 -99.00
170-190 0.128 0.244 0.331 0.116 0.244   0.00   1.57   8.60   0.00   0.00 -99.00
190-210 0.128 0.244 0.331 0.116 0.244   0.00   1.57   8.60   0.00   0.00 -99.00

TOT-210  34.6  59.2  76.5  24.6  59.2  <--cm   -  kg/ha-->    0.0    0.0  38918
SOIL ALBEDO    : 0.20      EVAPORATION LIMIT :12.00         MIN. FACTOR  : 1.00
RUNOFF CURVE # :70.00      DRAINAGE RATE     : 0.29         FERT. FACTOR : 0.90

 Sorghum          CULTIVAR: 990001-N.AMERICAN         ECOTYPE: IB0001
 P1     :360.0  P2O    :12.50  P2R    :  30.0  P5     :540.00
 G1     :  0.0  G2     : 6.00  PHINT  : 49.00  P3     : 152.5  P4    :  81.5


*SIMULATED CROP AND SOIL STATUS AT MAIN DEVELOPMENT STAGES

 RUN NO.   399     TERRAREF-----S4_3992    

        CROP GROWTH     BIOMASS         LEAF   CROP N     STRESS      STRESS                                           
   DATE  AGE STAGE        kg/ha    LAI   NUM  kg/ha  %   H2O  Nitr Phos1 Phos2  RSTG                                   
 ------  --- ----------   -----  -----  ----  ---  ---  ----  ----  ----  ----  ----                                   
                                                                                    
 25 APR    0 Sowing           0   0.00   0.0    0  0.0  0.00  0.00  0.00  0.00     8
  2 AUG   99 Germinate        0   0.00   0.0    0  0.0  0.00  0.00  0.00  0.00     9
  5 AUG  102 Emergence        2   0.00   0.9    0  5.0  0.00  0.00  0.00  0.00     1
 20 AUG  117 End Juveni      54   0.21   8.9    2  4.2  0.00  0.00  0.00  0.00     2
 27 AUG  124 Panicle In     349   0.90  12.3    5  1.4  0.10  0.47  0.00  0.00     3
 18 SEP  146 End Lf Gro    1005   0.98  21.7    9  0.9  0.76  0.80  0.00  0.00     4
 26 SEP  154 Anthesis      1280   0.76  21.7   10  0.8  0.70  0.30  0.00  0.00     4
 29 SEP  157 End Pan Gr    1343   0.67  21.7   10  0.8  0.87  0.04  0.00  0.00     5
 14 NOV  203 Maturity      1966   0.35  21.7   15  0.8  0.03  0.48  0.00  0.00     7
 14 NOV  203 Harvest       1966   0.35  21.7   15  0.8  0.00  0.00  0.00  0.00     7


*MAIN GROWTH AND DEVELOPMENT VARIABLES

@     VARIABLE                                         SIMULATED     MEASURED
      --------                                         ---------     --------
      Panicle Initiation day (dap)                           124          -99
      Anthesis day (dap)                                     154          -99
      Physiological maturity day (dap)                       203          -99
      Yield at harvest maturity (kg [dm]/ha)                 648          -99
      Number at maturity (no/m2)                            4348          -99
      Unit wt at maturity (g [dm]/unit)                   0.0149          -99
      Number at maturity (no/unit)                         434.8          -99
      Tops weight at maturity (kg [dm]/ha)                  1966          -99
      By-product produced (stalk) at maturity (kg[dm]/ha    1318          -99
      Leaf area index, maximum                              1.02          -99
      Harvest index at maturity                            0.329          -99
      Grain N at maturity (kg/ha)                             11          -99
      Tops N at maturity (kg/ha)                              15          -99
      Stem N at maturity (kg/ha)                               5          -99
      Grain N at maturity (%)                                1.6          -99
      Tops weight at anthesis (kg [dm]/ha)                  1257          -99
      Tops N at anthesis (kg/ha)                              10          -99
      Leaf number per stem at maturity                     21.70          -99
      Emergence day (dap)                                    102          -99


*ENVIRONMENTAL AND STRESS FACTORS

 |-----Development Phase------|--------------------------------------Environment--------------------------------------|-----------------Stress-----------------|
                              |---------------Average--------------|-----Cumulative-----|--------Count of days--------|          (0=Min, 1=Max Stress)         |
                         Time  Temp  Temp  Temp Solar Photop                Evapo    Pot TMIN TMIN TMAX TMAX TMAX RAIN|----Water----|---Nitrogen--|-Phosphorus-|
                         Span   Max   Min  Mean   Rad  [day]    CO2   Rain  Trans     ET   <    <    >    >    >    >   Photo         Photo         Photo
                         days    øC    øC    øC MJ/m2     hr    ppm     mm     mm     mm  0øC  2øC 30øC 32øC 34øC  0mm  synth Growth  synth Growth  synth Growth
----------------------------------------------------------------------------------------------------------------------------------------------------------------
 Emergence-End Juvenile    15  39.0  25.2  32.1  24.6  13.42  408.7   54.6   53.1  131.4    0    0   15   15   15    5  0.000  0.000  0.000  0.003  0.000  0.000
 End Juvenil-Panicle Ini    7  38.2  26.2  32.2  22.6  13.06  408.9    0.0   17.1   51.6    0    0    7    7    7    0  0.000  0.043  0.160  0.335  0.000  0.000
 Panicle Ini-End Lf Grow   22  40.1  23.1  31.6  24.3  12.53  408.9    0.0   40.4  180.1    0    0   22   22   22    0  0.607  0.738  0.584  0.820  0.000  0.000
 End Lf Grth-Beg Grn Fil   11  37.3  21.4  29.4  20.4  11.92  409.1   12.4   17.1   68.7    0    0   11   10   10    2  0.663  0.745  0.063  0.279  0.000  0.000
 Grain Filling Phase       45  27.5  13.3  20.4  16.1  10.91  409.3   92.7   97.3  169.6    0    0    9    3    2    6  0.034  0.045  0.271  0.491  0.000  0.000
   
 Planting to Harvest      204  36.2  20.0  28.1  23.8  12.95  408.7  178.8  259.4 1536.6    0    1  161  154  145   18  0.109  0.131  0.132  0.224  0.000  0.000
----------------------------------------------------------------------------------------------------------------------------------------------------------------


*Resource Productivity
 Growing season length: 204 days 

 Precipitation during growing season       178.8 mm[rain]
   Dry Matter Productivity                  1.10 kg[DM]/m3[rain]          =   11.0 kg[DM]/ha per mm[rain]
   Yield Productivity                       0.36 kg[grain yield]/m3[rain] =    3.6 kg[yield]/ha per mm[rain]

 Evapotranspiration during growing season  259.4 mm[ET]
   Dry Matter Productivity                  0.76 kg[DM]/m3[ET]            =    7.6 kg[DM]/ha per mm[ET]
   Yield Productivity                       0.25 kg[grain yield]/m3[ET]   =    2.5 kg[yield]/ha per mm[ET]

 Transpiration during growing season       100.5 mm[EP]
   Dry Matter Productivity                  1.96 kg[DM]/m3[EP]            =   19.6 kg[DM]/ha per mm[EP]
   Yield Productivity                       0.64 kg[grain yield]/m3[EP]   =    6.4 kg[yield]/ha per mm[EP]

 N uptake during growing season               20 kg[N uptake]/ha
   Dry Matter Productivity                  98.3 kg[DM]/kg[N uptake]
   Yield Productivity                       32.4 kg[yield]/kg[N uptake]

--------------------------------------------------------------------------------------------------------------

                   Sorghum YIELD :      648 kg/ha    [Dry weight] 

**************************************************************************************************************

*DSSAT Cropping System Model Ver. 4.8.0.027 -develop  JUN 30, 2022 07:21:05

*RUN 400        : TERRAREF-----S4_4000      SGCER048 TERRAR01  400
 MODEL          : SGCER048 - Sorghum
 EXPERIMENT     : TERRAR01 SG
 DATA PATH      :
 TREATMENT400   : TERRAREF-----S4_4000      SGCER048


 CROP           : Sorghum          CULTIVAR : N.AMERICAN       ECOTYPE :IB0001
 STARTING DATE  : MAR 21 2018
 PLANTING DATE  : APR 25 2018      PLANTS/m2 :    10.0    ROW SPACING :  72.cm
 WEATHER        : AZMC   2018
 SOIL           : AZMC920001     TEXTURE : CL    - TRIX CLAY LOAM
 SOIL INITIAL C : DEPTH:210cm EXTR. H2O:246.3mm  NO3:  0.0kg/ha  NH4:  0.0kg/ha
 WATER BALANCE  : IRRIGATE ON REPORTED DATE(S)
 IRRIGATION     :        0 mm IN     0 APPLICATIONS
 NITROGEN BAL.  : SOIL-N & N-UPTAKE SIMULATION; NO N-FIXATION
 N-FERTILIZER   :        0 kg/ha IN     0 APPLICATIONS
 RESIDUE/MANURE : INITIAL :     0 kg/ha ;       0 kg/ha IN     0 APPLICATIONS
 ENVIRONM. OPT. : DAYL=    0.00  SRAD=    0.00  TMAX=    0.00  TMIN=    0.00
                  RAIN=    0.00  CO2 =    0.00  DEW =    0.00  WIND=    0.00
 SIMULATION OPT : WATER   :Y  NITROGEN:Y  N-FIX:N  PHOSPH :N  PESTS  :N
                  PHOTO   :C  ET      :R  INFIL:S  HYDROL :R  SOM    :P
                  CO2 408ppm  NSWIT   :1  EVAP :S  SOIL   :2  STEMP  :D
 MANAGEMENT OPT : PLANTING:R  IRRIG   :R  FERT :R  RESIDUE:R  HARVEST:M
                  WEATHER :M  TILLAGE :Y

*SUMMARY OF SOIL AND GENETIC INPUT PARAMETERS

   SOIL LOWER UPPER   SAT  EXTR  INIT   ROOT   BULK     pH    NO3    NH4    ORG
  DEPTH LIMIT LIMIT    SW    SW    SW   DIST   DENS                          C
   cm   cm3/cm3    cm3/cm3    cm3/cm3         g/cm3         ugN/g  ugN/g     %
-------------------------------------------------------------------------------
  0-  5 0.202 0.320 0.417 0.118 0.320   1.00   1.31   8.50   0.00   0.00   0.41
  5- 15 0.201 0.319 0.424 0.118 0.319   0.74   1.27   8.50   0.00   0.00   0.35
 15- 30 0.199 0.319 0.424 0.120 0.319   0.61   1.27   8.50   0.00   0.00   0.27
 30- 40 0.198 0.318 0.419 0.120 0.318   0.45   1.30   8.60   0.00   0.00   0.24
 40- 50 0.198 0.318 0.419 0.120 0.318   0.45   1.30   8.60   0.00   0.00   0.24
 50- 60 0.198 0.318 0.387 0.120 0.318   0.30   1.47   8.60   0.00   0.00   0.16
 60- 70 0.198 0.318 0.387 0.120 0.318   0.30   1.47   8.60   0.00   0.00   0.16
 70- 90 0.186 0.299 0.359 0.113 0.299   0.18   1.57   8.60   0.00   0.00   0.30
 90-110 0.159 0.275 0.347 0.116 0.275   0.10   1.57   8.60   0.00   0.00   0.10
110-120 0.159 0.275 0.347 0.116 0.275   0.10   1.57   8.60   0.00   0.00   0.10
120-130 0.159 0.275 0.347 0.116 0.275   0.10   1.57   8.60   0.00   0.00   0.10
130-150 0.136 0.254 0.336 0.118 0.254   0.05   1.57   8.60   0.00   0.00 -99.00
150-170 0.136 0.254 0.336 0.118 0.254   0.00   1.57   8.60   0.00   0.00 -99.00
170-190 0.128 0.244 0.331 0.116 0.244   0.00   1.57   8.60   0.00   0.00 -99.00
190-210 0.128 0.244 0.331 0.116 0.244   0.00   1.57   8.60   0.00   0.00 -99.00

TOT-210  34.6  59.2  76.5  24.6  59.2  <--cm   -  kg/ha-->    0.0    0.0  38918
SOIL ALBEDO    : 0.20      EVAPORATION LIMIT :12.00         MIN. FACTOR  : 1.00
RUNOFF CURVE # :70.00      DRAINAGE RATE     : 0.29         FERT. FACTOR : 0.90

 Sorghum          CULTIVAR: 990001-N.AMERICAN         ECOTYPE: IB0001
 P1     :360.0  P2O    :12.50  P2R    :  30.0  P5     :540.00
 G1     :  0.0  G2     : 6.00  PHINT  : 49.00  P3     : 152.5  P4    :  81.5


*SIMULATED CROP AND SOIL STATUS AT MAIN DEVELOPMENT STAGES

 RUN NO.   400     TERRAREF-----S4_4000    

        CROP GROWTH     BIOMASS         LEAF   CROP N     STRESS      STRESS                                           
   DATE  AGE STAGE        kg/ha    LAI   NUM  kg/ha  %   H2O  Nitr Phos1 Phos2  RSTG                                   
 ------  --- ----------   -----  -----  ----  ---  ---  ----  ----  ----  ----  ----                                   
                                                                                    
 25 APR    0 Sowing           0   0.00   0.0    0  0.0  0.00  0.00  0.00  0.00     8
  2 AUG   99 Germinate        0   0.00   0.0    0  0.0  0.00  0.00  0.00  0.00     9
  5 AUG  102 Emergence        2   0.00   0.9    0  5.0  0.00  0.00  0.00  0.00     1
 20 AUG  117 End Juveni      54   0.21   8.9    2  4.2  0.00  0.00  0.00  0.00     2
 27 AUG  124 Panicle In     349   0.90  12.3    5  1.4  0.10  0.47  0.00  0.00     3
 18 SEP  146 End Lf Gro    1005   0.98  21.7    9  0.9  0.76  0.80  0.00  0.00     4
 26 SEP  154 Anthesis      1280   0.76  21.7   10  0.8  0.70  0.30  0.00  0.00     4
 29 SEP  157 End Pan Gr    1343   0.67  21.7   10  0.8  0.87  0.04  0.00  0.00     5
 14 NOV  203 Maturity      1966   0.35  21.7   15  0.8  0.03  0.48  0.00  0.00     7
 14 NOV  203 Harvest       1966   0.35  21.7   15  0.8  0.00  0.00  0.00  0.00     7


*MAIN GROWTH AND DEVELOPMENT VARIABLES

@     VARIABLE                                         SIMULATED     MEASURED
      --------                                         ---------     --------
      Panicle Initiation day (dap)                           124          -99
      Anthesis day (dap)                                     154          -99
      Physiological maturity day (dap)                       203          -99
      Yield at harvest maturity (kg [dm]/ha)                 648          -99
      Number at maturity (no/m2)                            4348          -99
      Unit wt at maturity (g [dm]/unit)                   0.0149          -99
      Number at maturity (no/unit)                         434.8          -99
      Tops weight at maturity (kg [dm]/ha)                  1966          -99
      By-product produced (stalk) at maturity (kg[dm]/ha    1318          -99
      Leaf area index, maximum                              1.02          -99
      Harvest index at maturity                            0.329          -99
      Grain N at maturity (kg/ha)                             11          -99
      Tops N at maturity (kg/ha)                              15          -99
      Stem N at maturity (kg/ha)                               5          -99
      Grain N at maturity (%)                                1.6          -99
      Tops weight at anthesis (kg [dm]/ha)                  1257          -99
      Tops N at anthesis (kg/ha)                              10          -99
      Leaf number per stem at maturity                     21.70          -99
      Emergence day (dap)                                    102          -99


*ENVIRONMENTAL AND STRESS FACTORS

 |-----Development Phase------|--------------------------------------Environment--------------------------------------|-----------------Stress-----------------|
                              |---------------Average--------------|-----Cumulative-----|--------Count of days--------|          (0=Min, 1=Max Stress)         |
                         Time  Temp  Temp  Temp Solar Photop                Evapo    Pot TMIN TMIN TMAX TMAX TMAX RAIN|----Water----|---Nitrogen--|-Phosphorus-|
                         Span   Max   Min  Mean   Rad  [day]    CO2   Rain  Trans     ET   <    <    >    >    >    >   Photo         Photo         Photo
                         days    øC    øC    øC MJ/m2     hr    ppm     mm     mm     mm  0øC  2øC 30øC 32øC 34øC  0mm  synth Growth  synth Growth  synth Growth
----------------------------------------------------------------------------------------------------------------------------------------------------------------
 Emergence-End Juvenile    15  39.0  25.2  32.1  24.6  13.42  408.7   54.6   53.1  131.4    0    0   15   15   15    5  0.000  0.000  0.000  0.003  0.000  0.000
 End Juvenil-Panicle Ini    7  38.2  26.2  32.2  22.6  13.06  408.9    0.0   17.1   51.6    0    0    7    7    7    0  0.000  0.043  0.160  0.335  0.000  0.000
 Panicle Ini-End Lf Grow   22  40.1  23.1  31.6  24.3  12.53  408.9    0.0   40.4  180.1    0    0   22   22   22    0  0.607  0.738  0.584  0.820  0.000  0.000
 End Lf Grth-Beg Grn Fil   11  37.3  21.4  29.4  20.4  11.92  409.1   12.4   17.1   68.7    0    0   11   10   10    2  0.663  0.745  0.063  0.279  0.000  0.000
 Grain Filling Phase       45  27.5  13.3  20.4  16.1  10.91  409.3   92.7   97.3  169.6    0    0    9    3    2    6  0.034  0.045  0.271  0.491  0.000  0.000
   
 Planting to Harvest      204  36.2  20.0  28.1  23.8  12.95  408.7  178.8  259.4 1536.6    0    1  161  154  145   18  0.109  0.131  0.132  0.224  0.000  0.000
----------------------------------------------------------------------------------------------------------------------------------------------------------------


*Resource Productivity
 Growing season length: 204 days 

 Precipitation during growing season       178.8 mm[rain]
   Dry Matter Productivity                  1.10 kg[DM]/m3[rain]          =   11.0 kg[DM]/ha per mm[rain]
   Yield Productivity                       0.36 kg[grain yield]/m3[rain] =    3.6 kg[yield]/ha per mm[rain]

 Evapotranspiration during growing season  259.4 mm[ET]
   Dry Matter Productivity                  0.76 kg[DM]/m3[ET]            =    7.6 kg[DM]/ha per mm[ET]
   Yield Productivity                       0.25 kg[grain yield]/m3[ET]   =    2.5 kg[yield]/ha per mm[ET]

 Transpiration during growing season       100.5 mm[EP]
   Dry Matter Productivity                  1.96 kg[DM]/m3[EP]            =   19.6 kg[DM]/ha per mm[EP]
   Yield Productivity                       0.64 kg[grain yield]/m3[EP]   =    6.4 kg[yield]/ha per mm[EP]

 N uptake during growing season               20 kg[N uptake]/ha
   Dry Matter Productivity                  98.3 kg[DM]/kg[N uptake]
   Yield Productivity                       32.4 kg[yield]/kg[N uptake]

--------------------------------------------------------------------------------------------------------------

                   Sorghum YIELD :      648 kg/ha    [Dry weight] 

**************************************************************************************************************
