*Soil Carbon Balance Summary

*DSSAT Cropping System Model Ver. 4.8.0.027 -develop  JUN 30, 2022 07:20:22
!                             <----------------- Initial State Variables ----------------><------------------ Final State Variables -----------------><----------- Added ----------><---------------- Lost ---------------->
!                             <-------- SOM-C -------><-------- FOM-C -------><-----CH4--><-------- SOM-C -------><-------- FOM-C -------><-----CH4--><---OM---><Senesced><-HarvRes><----------------- GHG ----------------><--Balance->
!                                     Surf        Soil        Surf        Soil     Storage        Surf        Soil        Surf        Soil     Storage 
@Run FILEX               TN CR       SC0Di      SOMCTi       LC0Di       LCTDi     CH4STDi        SC0D       SOMCT        LC0D        LCTD      CH4STD      OMAC     SENCC      HRCH     CO2EC     CH4EC    CH4LCC    CH4COC      CUMBAL
   1 TERRAR01.SGX         1 SG        0.00   118234.42        0.00        0.00        0.00        0.00   117664.47        0.00       22.32        0.00      0.00     34.67      0.00    582.22      0.00      0.00      0.00     -0.0787
   2 TERRAR01.SGX         2 SG        0.00   118234.42        0.00        0.00        0.00        0.00   117664.47        0.00       22.32        0.00      0.00     34.67      0.00    582.22      0.00      0.00      0.00     -0.0787
   3 TERRAR01.SGX         3 SG        0.00   118234.42        0.00        0.00        0.00        0.00   117664.47        0.00       22.32        0.00      0.00     34.67      0.00    582.22      0.00      0.00      0.00     -0.0787
   4 TERRAR01.SGX         4 SG        0.00   118234.42        0.00        0.00        0.00        0.00   117664.47        0.00       22.32        0.00      0.00     34.67      0.00    582.22      0.00      0.00      0.00     -0.0787
   5 TERRAR01.SGX         5 SG        0.00   118234.42        0.00        0.00        0.00        0.00   117664.47        0.00       22.32        0.00      0.00     34.67      0.00    582.22      0.00      0.00      0.00     -0.0787
   6 TERRAR01.SGX         6 SG        0.00   118234.42        0.00        0.00        0.00        0.00   117664.47        0.00       22.32        0.00      0.00     34.67      0.00    582.22      0.00      0.00      0.00     -0.0787
   7 TERRAR01.SGX         7 SG        0.00   118234.42        0.00        0.00        0.00        0.00   117664.47        0.00       22.32        0.00      0.00     34.67      0.00    582.22      0.00      0.00      0.00     -0.0787
   8 TERRAR01.SGX         8 SG        0.00   118234.42        0.00        0.00        0.00        0.00   117664.47        0.00       22.32        0.00      0.00     34.67      0.00    582.22      0.00      0.00      0.00     -0.0787
   9 TERRAR01.SGX         9 SG        0.00   118234.42        0.00        0.00        0.00        0.00   117664.47        0.00       22.32        0.00      0.00     34.67      0.00    582.22      0.00      0.00      0.00     -0.0787
  10 TERRAR01.SGX        10 SG        0.00   118234.42        0.00        0.00        0.00        0.00   117664.47        0.00       22.32        0.00      0.00     34.67      0.00    582.22      0.00      0.00      0.00     -0.0787
  11 TERRAR01.SGX        11 SG        0.00   118234.42        0.00        0.00        0.00        0.00   117664.47        0.00       22.32        0.00      0.00     34.67      0.00    582.22      0.00      0.00      0.00     -0.0787
  12 TERRAR01.SGX        12 SG        0.00   118234.42        0.00        0.00        0.00        0.00   117664.47        0.00       22.32        0.00      0.00     34.67      0.00    582.22      0.00      0.00      0.00     -0.0787
  13 TERRAR01.SGX        13 SG        0.00   118234.42        0.00        0.00        0.00        0.00   117664.47        0.00       22.32        0.00      0.00     34.67      0.00    582.22      0.00      0.00      0.00     -0.0787
  14 TERRAR01.SGX        14 SG        0.00   118234.42        0.00        0.00        0.00        0.00   117664.47        0.00       22.32        0.00      0.00     34.67      0.00    582.22      0.00      0.00      0.00     -0.0787
  15 TERRAR01.SGX        15 SG        0.00   118234.42        0.00        0.00        0.00        0.00   117664.47        0.00       22.32        0.00      0.00     34.67      0.00    582.22      0.00      0.00      0.00     -0.0787
  16 TERRAR01.SGX        16 SG        0.00   118234.42        0.00        0.00        0.00        0.00   117664.47        0.00       22.32        0.00      0.00     34.67      0.00    582.22      0.00      0.00      0.00     -0.0787
  17 TERRAR01.SGX        17 SG        0.00   118234.42        0.00        0.00        0.00        0.00   117664.47        0.00       22.32        0.00      0.00     34.67      0.00    582.22      0.00      0.00      0.00     -0.0787
  18 TERRAR01.SGX        18 SG        0.00   118234.42        0.00        0.00        0.00        0.00   117664.47        0.00       22.32        0.00      0.00     34.67      0.00    582.22      0.00      0.00      0.00     -0.0787
  19 TERRAR01.SGX        19 SG        0.00   118234.42        0.00        0.00        0.00        0.00   117664.47        0.00       22.32        0.00      0.00     34.67      0.00    582.22      0.00      0.00      0.00     -0.0787
  20 TERRAR01.SGX        20 SG        0.00   118234.42        0.00        0.00        0.00        0.00   117664.47        0.00       22.32        0.00      0.00     34.67      0.00    582.22      0.00      0.00      0.00     -0.0787
  21 TERRAR01.SGX        21 SG        0.00   118234.42        0.00        0.00        0.00        0.00   117664.47        0.00       22.32        0.00      0.00     34.67      0.00    582.22      0.00      0.00      0.00     -0.0787
  22 TERRAR01.SGX        22 SG        0.00   118234.42        0.00        0.00        0.00        0.00   117664.47        0.00       22.32        0.00      0.00     34.67      0.00    582.22      0.00      0.00      0.00     -0.0787
  23 TERRAR01.SGX        23 SG        0.00   118234.42        0.00        0.00        0.00        0.00   117664.47        0.00       22.32        0.00      0.00     34.67      0.00    582.22      0.00      0.00      0.00     -0.0787
  24 TERRAR01.SGX        24 SG        0.00   118234.42        0.00        0.00        0.00        0.00   117664.47        0.00       22.32        0.00      0.00     34.67      0.00    582.22      0.00      0.00      0.00     -0.0787
  25 TERRAR01.SGX        25 SG        0.00   118234.42        0.00        0.00        0.00        0.00   117664.47        0.00       22.32        0.00      0.00     34.67      0.00    582.22      0.00      0.00      0.00     -0.0787
  26 TERRAR01.SGX        26 SG        0.00   118234.42        0.00        0.00        0.00        0.00   117664.47        0.00       22.32        0.00      0.00     34.67      0.00    582.22      0.00      0.00      0.00     -0.0787
  27 TERRAR01.SGX        27 SG        0.00   118234.42        0.00        0.00        0.00        0.00   117664.47        0.00       22.32        0.00      0.00     34.67      0.00    582.22      0.00      0.00      0.00     -0.0787
  28 TERRAR01.SGX        28 SG        0.00   118234.42        0.00        0.00        0.00        0.00   117664.47        0.00       22.32        0.00      0.00     34.67      0.00    582.22      0.00      0.00      0.00     -0.0787
  29 TERRAR01.SGX        29 SG        0.00   118234.42        0.00        0.00        0.00        0.00   117664.47        0.00       22.32        0.00      0.00     34.67      0.00    582.22      0.00      0.00      0.00     -0.0787
  30 TERRAR01.SGX        30 SG        0.00   118234.42        0.00        0.00        0.00        0.00   117664.47        0.00       22.32        0.00      0.00     34.67      0.00    582.22      0.00      0.00      0.00     -0.0787
  31 TERRAR01.SGX        31 SG        0.00   118234.42        0.00        0.00        0.00        0.00   117664.47        0.00       22.32        0.00      0.00     34.67      0.00    582.22      0.00      0.00      0.00     -0.0787
  32 TERRAR01.SGX        32 SG        0.00   118234.42        0.00        0.00        0.00        0.00   117664.47        0.00       22.32        0.00      0.00     34.67      0.00    582.22      0.00      0.00      0.00     -0.0787
  33 TERRAR01.SGX        33 SG        0.00   118234.42        0.00        0.00        0.00        0.00   117664.47        0.00       22.32        0.00      0.00     34.67      0.00    582.22      0.00      0.00      0.00     -0.0787
  34 TERRAR01.SGX        34 SG        0.00   118234.42        0.00        0.00        0.00        0.00   117664.47        0.00       22.32        0.00      0.00     34.67      0.00    582.22      0.00      0.00      0.00     -0.0787
  35 TERRAR01.SGX        35 SG        0.00   118234.42        0.00        0.00        0.00        0.00   117664.47        0.00       22.32        0.00      0.00     34.67      0.00    582.22      0.00      0.00      0.00     -0.0787
  36 TERRAR01.SGX        36 SG        0.00   118234.42        0.00        0.00        0.00        0.00   117664.47        0.00       22.32        0.00      0.00     34.67      0.00    582.22      0.00      0.00      0.00     -0.0787
  37 TERRAR01.SGX        37 SG        0.00   118234.42        0.00        0.00        0.00        0.00   117664.47        0.00       22.32        0.00      0.00     34.67      0.00    582.22      0.00      0.00      0.00     -0.0787
  38 TERRAR01.SGX        38 SG        0.00   118234.42        0.00        0.00        0.00        0.00   117664.47        0.00       22.32        0.00      0.00     34.67      0.00    582.22      0.00      0.00      0.00     -0.0787
  39 TERRAR01.SGX        39 SG        0.00   118234.42        0.00        0.00        0.00        0.00   117664.47        0.00       22.32        0.00      0.00     34.67      0.00    582.22      0.00      0.00      0.00     -0.0787
  40 TERRAR01.SGX        40 SG        0.00   118234.42        0.00        0.00        0.00        0.00   117664.47        0.00       22.32        0.00      0.00     34.67      0.00    582.22      0.00      0.00      0.00     -0.0787
  41 TERRAR01.SGX        41 SG        0.00   118234.42        0.00        0.00        0.00        0.00   117664.47        0.00       22.32        0.00      0.00     34.67      0.00    582.22      0.00      0.00      0.00     -0.0787
  42 TERRAR01.SGX        42 SG        0.00   118234.42        0.00        0.00        0.00        0.00   117664.47        0.00       22.32        0.00      0.00     34.67      0.00    582.22      0.00      0.00      0.00     -0.0787
  43 TERRAR01.SGX        43 SG        0.00   118234.42        0.00        0.00        0.00        0.00   117664.47        0.00       22.32        0.00      0.00     34.67      0.00    582.22      0.00      0.00      0.00     -0.0787
  44 TERRAR01.SGX        44 SG        0.00   118234.42        0.00        0.00        0.00        0.00   117664.47        0.00       22.32        0.00      0.00     34.67      0.00    582.22      0.00      0.00      0.00     -0.0787
  45 TERRAR01.SGX        45 SG        0.00   118234.42        0.00        0.00        0.00        0.00   117664.47        0.00       22.32        0.00      0.00     34.67      0.00    582.22      0.00      0.00      0.00     -0.0787
  46 TERRAR01.SGX        46 SG        0.00   118234.42        0.00        0.00        0.00        0.00   117664.47        0.00       22.32        0.00      0.00     34.67      0.00    582.22      0.00      0.00      0.00     -0.0787
  47 TERRAR01.SGX        47 SG        0.00   118234.42        0.00        0.00        0.00        0.00   117664.47        0.00       22.32        0.00      0.00     34.67      0.00    582.22      0.00      0.00      0.00     -0.0787
  48 TERRAR01.SGX        48 SG        0.00   118234.42        0.00        0.00        0.00        0.00   117664.47        0.00       22.32        0.00      0.00     34.67      0.00    582.22      0.00      0.00      0.00     -0.0787
  49 TERRAR01.SGX        49 SG        0.00   118234.42        0.00        0.00        0.00        0.00   117664.47        0.00       22.32        0.00      0.00     34.67      0.00    582.22      0.00      0.00      0.00     -0.0787
  50 TERRAR01.SGX        50 SG        0.00   118234.42        0.00        0.00        0.00        0.00   117664.47        0.00       22.32        0.00      0.00     34.67      0.00    582.22      0.00      0.00      0.00     -0.0787
  51 TERRAR01.SGX        51 SG        0.00   118234.42        0.00        0.00        0.00        0.00   117664.47        0.00       22.32        0.00      0.00     34.67      0.00    582.22      0.00      0.00      0.00     -0.0787
  52 TERRAR01.SGX        52 SG        0.00   118234.42        0.00        0.00        0.00        0.00   117664.47        0.00       22.32        0.00      0.00     34.67      0.00    582.22      0.00      0.00      0.00     -0.0787
  53 TERRAR01.SGX        53 SG        0.00   118234.42        0.00        0.00        0.00        0.00   117664.47        0.00       22.32        0.00      0.00     34.67      0.00    582.22      0.00      0.00      0.00     -0.0787
  54 TERRAR01.SGX        54 SG        0.00   118234.42        0.00        0.00        0.00        0.00   117664.47        0.00       22.32        0.00      0.00     34.67      0.00    582.22      0.00      0.00      0.00     -0.0787
  55 TERRAR01.SGX        55 SG        0.00   118234.42        0.00        0.00        0.00        0.00   117664.47        0.00       22.32        0.00      0.00     34.67      0.00    582.22      0.00      0.00      0.00     -0.0787
  56 TERRAR01.SGX        56 SG        0.00   118234.42        0.00        0.00        0.00        0.00   117664.47        0.00       22.32        0.00      0.00     34.67      0.00    582.22      0.00      0.00      0.00     -0.0787
  57 TERRAR01.SGX        57 SG        0.00   118234.42        0.00        0.00        0.00        0.00   117664.47        0.00       22.32        0.00      0.00     34.67      0.00    582.22      0.00      0.00      0.00     -0.0787
  58 TERRAR01.SGX        58 SG        0.00   118234.42        0.00        0.00        0.00        0.00   117664.47        0.00       22.32        0.00      0.00     34.67      0.00    582.22      0.00      0.00      0.00     -0.0787
  59 TERRAR01.SGX        59 SG        0.00   118234.42        0.00        0.00        0.00        0.00   117664.47        0.00       22.32        0.00      0.00     34.67      0.00    582.22      0.00      0.00      0.00     -0.0787
  60 TERRAR01.SGX        60 SG        0.00   118234.42        0.00        0.00        0.00        0.00   117664.47        0.00       22.32        0.00      0.00     34.67      0.00    582.22      0.00      0.00      0.00     -0.0787
  61 TERRAR01.SGX        61 SG        0.00   118234.42        0.00        0.00        0.00        0.00   117664.47        0.00       22.32        0.00      0.00     34.67      0.00    582.22      0.00      0.00      0.00     -0.0787
  62 TERRAR01.SGX        62 SG        0.00   118234.42        0.00        0.00        0.00        0.00   117664.47        0.00       22.32        0.00      0.00     34.67      0.00    582.22      0.00      0.00      0.00     -0.0787
  63 TERRAR01.SGX        63 SG        0.00   118234.42        0.00        0.00        0.00        0.00   117664.47        0.00       22.32        0.00      0.00     34.67      0.00    582.22      0.00      0.00      0.00     -0.0787
  64 TERRAR01.SGX        64 SG        0.00   118234.42        0.00        0.00        0.00        0.00   117664.47        0.00       22.32        0.00      0.00     34.67      0.00    582.22      0.00      0.00      0.00     -0.0787
  65 TERRAR01.SGX        65 SG        0.00   118234.42        0.00        0.00        0.00        0.00   117664.47        0.00       22.32        0.00      0.00     34.67      0.00    582.22      0.00      0.00      0.00     -0.0787
  66 TERRAR01.SGX        66 SG        0.00   118234.42        0.00        0.00        0.00        0.00   117664.47        0.00       22.32        0.00      0.00     34.67      0.00    582.22      0.00      0.00      0.00     -0.0787
  67 TERRAR01.SGX        67 SG        0.00   118234.42        0.00        0.00        0.00        0.00   117664.47        0.00       22.32        0.00      0.00     34.67      0.00    582.22      0.00      0.00      0.00     -0.0787
  68 TERRAR01.SGX        68 SG        0.00   118234.42        0.00        0.00        0.00        0.00   117664.47        0.00       22.32        0.00      0.00     34.67      0.00    582.22      0.00      0.00      0.00     -0.0787
  69 TERRAR01.SGX        69 SG        0.00   118234.42        0.00        0.00        0.00        0.00   117664.47        0.00       22.32        0.00      0.00     34.67      0.00    582.22      0.00      0.00      0.00     -0.0787
  70 TERRAR01.SGX        70 SG        0.00   118234.42        0.00        0.00        0.00        0.00   117664.47        0.00       22.32        0.00      0.00     34.67      0.00    582.22      0.00      0.00      0.00     -0.0787
  71 TERRAR01.SGX        71 SG        0.00   118234.42        0.00        0.00        0.00        0.00   117664.47        0.00       22.32        0.00      0.00     34.67      0.00    582.22      0.00      0.00      0.00     -0.0787
  72 TERRAR01.SGX        72 SG        0.00   118234.42        0.00        0.00        0.00        0.00   117664.47        0.00       22.32        0.00      0.00     34.67      0.00    582.22      0.00      0.00      0.00     -0.0787
  73 TERRAR01.SGX        73 SG        0.00   118234.42        0.00        0.00        0.00        0.00   117664.47        0.00       22.32        0.00      0.00     34.67      0.00    582.22      0.00      0.00      0.00     -0.0787
  74 TERRAR01.SGX        74 SG        0.00   118234.42        0.00        0.00        0.00        0.00   117664.47        0.00       22.32        0.00      0.00     34.67      0.00    582.22      0.00      0.00      0.00     -0.0787
  75 TERRAR01.SGX        75 SG        0.00   118234.42        0.00        0.00        0.00        0.00   117664.47        0.00       22.32        0.00      0.00     34.67      0.00    582.22      0.00      0.00      0.00     -0.0787
  76 TERRAR01.SGX        76 SG        0.00   118234.42        0.00        0.00        0.00        0.00   117664.47        0.00       22.32        0.00      0.00     34.67      0.00    582.22      0.00      0.00      0.00     -0.0787
  77 TERRAR01.SGX        77 SG        0.00   118234.42        0.00        0.00        0.00        0.00   117664.47        0.00       22.32        0.00      0.00     34.67      0.00    582.22      0.00      0.00      0.00     -0.0787
  78 TERRAR01.SGX        78 SG        0.00   118234.42        0.00        0.00        0.00        0.00   117664.47        0.00       22.32        0.00      0.00     34.67      0.00    582.22      0.00      0.00      0.00     -0.0787
  79 TERRAR01.SGX        79 SG        0.00   118234.42        0.00        0.00        0.00        0.00   117664.47        0.00       22.32        0.00      0.00     34.67      0.00    582.22      0.00      0.00      0.00     -0.0787
  80 TERRAR01.SGX        80 SG        0.00   118234.42        0.00        0.00        0.00        0.00   117664.47        0.00       22.32        0.00      0.00     34.67      0.00    582.22      0.00      0.00      0.00     -0.0787
  81 TERRAR01.SGX        81 SG        0.00   118234.42        0.00        0.00        0.00        0.00   117664.47        0.00       22.32        0.00      0.00     34.67      0.00    582.22      0.00      0.00      0.00     -0.0787
  82 TERRAR01.SGX        82 SG        0.00   118234.42        0.00        0.00        0.00        0.00   117664.47        0.00       22.32        0.00      0.00     34.67      0.00    582.22      0.00      0.00      0.00     -0.0787
  83 TERRAR01.SGX        83 SG        0.00   118234.42        0.00        0.00        0.00        0.00   117664.47        0.00       22.32        0.00      0.00     34.67      0.00    582.22      0.00      0.00      0.00     -0.0787
  84 TERRAR01.SGX        84 SG        0.00   118234.42        0.00        0.00        0.00        0.00   117664.47        0.00       22.32        0.00      0.00     34.67      0.00    582.22      0.00      0.00      0.00     -0.0787
  85 TERRAR01.SGX        85 SG        0.00   118234.42        0.00        0.00        0.00        0.00   117664.47        0.00       22.32        0.00      0.00     34.67      0.00    582.22      0.00      0.00      0.00     -0.0787
  86 TERRAR01.SGX        86 SG        0.00   118234.42        0.00        0.00        0.00        0.00   117664.47        0.00       22.32        0.00      0.00     34.67      0.00    582.22      0.00      0.00      0.00     -0.0787
  87 TERRAR01.SGX        87 SG        0.00   118234.42        0.00        0.00        0.00        0.00   117664.47        0.00       22.32        0.00      0.00     34.67      0.00    582.22      0.00      0.00      0.00     -0.0787
  88 TERRAR01.SGX        88 SG        0.00   118234.42        0.00        0.00        0.00        0.00   117664.47        0.00       22.32        0.00      0.00     34.67      0.00    582.22      0.00      0.00      0.00     -0.0787
  89 TERRAR01.SGX        89 SG        0.00   118234.42        0.00        0.00        0.00        0.00   117664.47        0.00       22.32        0.00      0.00     34.67      0.00    582.22      0.00      0.00      0.00     -0.0787
  90 TERRAR01.SGX        90 SG        0.00   118234.42        0.00        0.00        0.00        0.00   117664.47        0.00       22.32        0.00      0.00     34.67      0.00    582.22      0.00      0.00      0.00     -0.0787
  91 TERRAR01.SGX        91 SG        0.00   118234.42        0.00        0.00        0.00        0.00   117664.47        0.00       22.32        0.00      0.00     34.67      0.00    582.22      0.00      0.00      0.00     -0.0787
  92 TERRAR01.SGX        92 SG        0.00   118234.42        0.00        0.00        0.00        0.00   117664.47        0.00       22.32        0.00      0.00     34.67      0.00    582.22      0.00      0.00      0.00     -0.0787
  93 TERRAR01.SGX        93 SG        0.00   118234.42        0.00        0.00        0.00        0.00   117664.47        0.00       22.32        0.00      0.00     34.67      0.00    582.22      0.00      0.00      0.00     -0.0787
  94 TERRAR01.SGX        94 SG        0.00   118234.42        0.00        0.00        0.00        0.00   117664.47        0.00       22.32        0.00      0.00     34.67      0.00    582.22      0.00      0.00      0.00     -0.0787
  95 TERRAR01.SGX        95 SG        0.00   118234.42        0.00        0.00        0.00        0.00   117664.47        0.00       22.32        0.00      0.00     34.67      0.00    582.22      0.00      0.00      0.00     -0.0787
  96 TERRAR01.SGX        96 SG        0.00   118234.42        0.00        0.00        0.00        0.00   117664.47        0.00       22.32        0.00      0.00     34.67      0.00    582.22      0.00      0.00      0.00     -0.0787
  97 TERRAR01.SGX        97 SG        0.00   118234.42        0.00        0.00        0.00        0.00   117664.47        0.00       22.32        0.00      0.00     34.67      0.00    582.22      0.00      0.00      0.00     -0.0787
  98 TERRAR01.SGX        98 SG        0.00   118234.42        0.00        0.00        0.00        0.00   117664.47        0.00       22.32        0.00      0.00     34.67      0.00    582.22      0.00      0.00      0.00     -0.0787
  99 TERRAR01.SGX        99 SG        0.00   118234.42        0.00        0.00        0.00        0.00   117664.47        0.00       22.32        0.00      0.00     34.67      0.00    582.22      0.00      0.00      0.00     -0.0787
 100 TERRAR01.SGX       100 SG        0.00   118234.42        0.00        0.00        0.00        0.00   117664.47        0.00       22.32        0.00      0.00     34.67      0.00    582.22      0.00      0.00      0.00     -0.0787
 101 TERRAR01.SGX       101 SG        0.00   118234.42        0.00        0.00        0.00        0.00   117664.47        0.00       22.32        0.00      0.00     34.67      0.00    582.22      0.00      0.00      0.00     -0.0787
 102 TERRAR01.SGX       102 SG        0.00   118234.42        0.00        0.00        0.00        0.00   117664.47        0.00       22.32        0.00      0.00     34.67      0.00    582.22      0.00      0.00      0.00     -0.0787
 103 TERRAR01.SGX       103 SG        0.00   118234.42        0.00        0.00        0.00        0.00   117664.47        0.00       22.32        0.00      0.00     34.67      0.00    582.22      0.00      0.00      0.00     -0.0787
 104 TERRAR01.SGX       104 SG        0.00   118234.42        0.00        0.00        0.00        0.00   117664.47        0.00       22.32        0.00      0.00     34.67      0.00    582.22      0.00      0.00      0.00     -0.0787
 105 TERRAR01.SGX       105 SG        0.00   118234.42        0.00        0.00        0.00        0.00   117664.47        0.00       22.32        0.00      0.00     34.67      0.00    582.22      0.00      0.00      0.00     -0.0787
 106 TERRAR01.SGX       106 SG        0.00   118234.42        0.00        0.00        0.00        0.00   117664.47        0.00       22.32        0.00      0.00     34.67      0.00    582.22      0.00      0.00      0.00     -0.0787
 107 TERRAR01.SGX       107 SG        0.00   118234.42        0.00        0.00        0.00        0.00   117664.47        0.00       22.32        0.00      0.00     34.67      0.00    582.22      0.00      0.00      0.00     -0.0787
 108 TERRAR01.SGX       108 SG        0.00   118234.42        0.00        0.00        0.00        0.00   117664.47        0.00       22.32        0.00      0.00     34.67      0.00    582.22      0.00      0.00      0.00     -0.0787
 109 TERRAR01.SGX       109 SG        0.00   118234.42        0.00        0.00        0.00        0.00   117664.47        0.00       22.32        0.00      0.00     34.67      0.00    582.22      0.00      0.00      0.00     -0.0787
 110 TERRAR01.SGX       110 SG        0.00   118234.42        0.00        0.00        0.00        0.00   117664.47        0.00       22.32        0.00      0.00     34.67      0.00    582.22      0.00      0.00      0.00     -0.0787
 111 TERRAR01.SGX       111 SG        0.00   118234.42        0.00        0.00        0.00        0.00   117664.47        0.00       22.32        0.00      0.00     34.67      0.00    582.22      0.00      0.00      0.00     -0.0787
 112 TERRAR01.SGX       112 SG        0.00   118234.42        0.00        0.00        0.00        0.00   117664.47        0.00       22.32        0.00      0.00     34.67      0.00    582.22      0.00      0.00      0.00     -0.0787
 113 TERRAR01.SGX       113 SG        0.00   118234.42        0.00        0.00        0.00        0.00   117664.47        0.00       22.32        0.00      0.00     34.67      0.00    582.22      0.00      0.00      0.00     -0.0787
 114 TERRAR01.SGX       114 SG        0.00   118234.42        0.00        0.00        0.00        0.00   117664.47        0.00       22.32        0.00      0.00     34.67      0.00    582.22      0.00      0.00      0.00     -0.0787
 115 TERRAR01.SGX       115 SG        0.00   118234.42        0.00        0.00        0.00        0.00   117664.47        0.00       22.32        0.00      0.00     34.67      0.00    582.22      0.00      0.00      0.00     -0.0787
 116 TERRAR01.SGX       116 SG        0.00   118234.42        0.00        0.00        0.00        0.00   117664.47        0.00       22.32        0.00      0.00     34.67      0.00    582.22      0.00      0.00      0.00     -0.0787
 117 TERRAR01.SGX       117 SG        0.00   118234.42        0.00        0.00        0.00        0.00   117664.47        0.00       22.32        0.00      0.00     34.67      0.00    582.22      0.00      0.00      0.00     -0.0787
 118 TERRAR01.SGX       118 SG        0.00   118234.42        0.00        0.00        0.00        0.00   117664.47        0.00       22.32        0.00      0.00     34.67      0.00    582.22      0.00      0.00      0.00     -0.0787
 119 TERRAR01.SGX       119 SG        0.00   118234.42        0.00        0.00        0.00        0.00   117664.47        0.00       22.32        0.00      0.00     34.67      0.00    582.22      0.00      0.00      0.00     -0.0787
 120 TERRAR01.SGX       120 SG        0.00   118234.42        0.00        0.00        0.00        0.00   117664.47        0.00       22.32        0.00      0.00     34.67      0.00    582.22      0.00      0.00      0.00     -0.0787
 121 TERRAR01.SGX       121 SG        0.00   118234.42        0.00        0.00        0.00        0.00   117664.47        0.00       22.32        0.00      0.00     34.67      0.00    582.22      0.00      0.00      0.00     -0.0787
 122 TERRAR01.SGX       122 SG        0.00   118234.42        0.00        0.00        0.00        0.00   117664.47        0.00       22.32        0.00      0.00     34.67      0.00    582.22      0.00      0.00      0.00     -0.0787
 123 TERRAR01.SGX       123 SG        0.00   118234.42        0.00        0.00        0.00        0.00   117664.47        0.00       22.32        0.00      0.00     34.67      0.00    582.22      0.00      0.00      0.00     -0.0787
 124 TERRAR01.SGX       124 SG        0.00   118234.42        0.00        0.00        0.00        0.00   117664.47        0.00       22.32        0.00      0.00     34.67      0.00    582.22      0.00      0.00      0.00     -0.0787
 125 TERRAR01.SGX       125 SG        0.00   118234.42        0.00        0.00        0.00        0.00   117664.47        0.00       22.32        0.00      0.00     34.67      0.00    582.22      0.00      0.00      0.00     -0.0787
 126 TERRAR01.SGX       126 SG        0.00   118234.42        0.00        0.00        0.00        0.00   117664.47        0.00       22.32        0.00      0.00     34.67      0.00    582.22      0.00      0.00      0.00     -0.0787
 127 TERRAR01.SGX       127 SG        0.00   118234.42        0.00        0.00        0.00        0.00   117664.47        0.00       22.32        0.00      0.00     34.67      0.00    582.22      0.00      0.00      0.00     -0.0787
 128 TERRAR01.SGX       128 SG        0.00   118234.42        0.00        0.00        0.00        0.00   117664.47        0.00       22.32        0.00      0.00     34.67      0.00    582.22      0.00      0.00      0.00     -0.0787
 129 TERRAR01.SGX       129 SG        0.00   118234.42        0.00        0.00        0.00        0.00   117664.47        0.00       22.32        0.00      0.00     34.67      0.00    582.22      0.00      0.00      0.00     -0.0787
 130 TERRAR01.SGX       130 SG        0.00   118234.42        0.00        0.00        0.00        0.00   117664.47        0.00       22.32        0.00      0.00     34.67      0.00    582.22      0.00      0.00      0.00     -0.0787
 131 TERRAR01.SGX       131 SG        0.00   118234.42        0.00        0.00        0.00        0.00   117664.47        0.00       22.32        0.00      0.00     34.67      0.00    582.22      0.00      0.00      0.00     -0.0787
 132 TERRAR01.SGX       132 SG        0.00   118234.42        0.00        0.00        0.00        0.00   117664.47        0.00       22.32        0.00      0.00     34.67      0.00    582.22      0.00      0.00      0.00     -0.0787
 133 TERRAR01.SGX       133 SG        0.00   118234.42        0.00        0.00        0.00        0.00   117664.47        0.00       22.32        0.00      0.00     34.67      0.00    582.22      0.00      0.00      0.00     -0.0787
 134 TERRAR01.SGX       134 SG        0.00   118234.42        0.00        0.00        0.00        0.00   117664.47        0.00       22.32        0.00      0.00     34.67      0.00    582.22      0.00      0.00      0.00     -0.0787
 135 TERRAR01.SGX       135 SG        0.00   118234.42        0.00        0.00        0.00        0.00   117664.47        0.00       22.32        0.00      0.00     34.67      0.00    582.22      0.00      0.00      0.00     -0.0787
 136 TERRAR01.SGX       136 SG        0.00   118234.42        0.00        0.00        0.00        0.00   117664.47        0.00       22.32        0.00      0.00     34.67      0.00    582.22      0.00      0.00      0.00     -0.0787
 137 TERRAR01.SGX       137 SG        0.00   118234.42        0.00        0.00        0.00        0.00   117664.47        0.00       22.32        0.00      0.00     34.67      0.00    582.22      0.00      0.00      0.00     -0.0787
 138 TERRAR01.SGX       138 SG        0.00   118234.42        0.00        0.00        0.00        0.00   117664.47        0.00       22.32        0.00      0.00     34.67      0.00    582.22      0.00      0.00      0.00     -0.0787
 139 TERRAR01.SGX       139 SG        0.00   118234.42        0.00        0.00        0.00        0.00   117664.47        0.00       22.32        0.00      0.00     34.67      0.00    582.22      0.00      0.00      0.00     -0.0787
 140 TERRAR01.SGX       140 SG        0.00   118234.42        0.00        0.00        0.00        0.00   117664.47        0.00       22.32        0.00      0.00     34.67      0.00    582.22      0.00      0.00      0.00     -0.0787
 141 TERRAR01.SGX       141 SG        0.00   118234.42        0.00        0.00        0.00        0.00   117664.47        0.00       22.32        0.00      0.00     34.67      0.00    582.22      0.00      0.00      0.00     -0.0787
 142 TERRAR01.SGX       142 SG        0.00   118234.42        0.00        0.00        0.00        0.00   117664.47        0.00       22.32        0.00      0.00     34.67      0.00    582.22      0.00      0.00      0.00     -0.0787
 143 TERRAR01.SGX       143 SG        0.00   118234.42        0.00        0.00        0.00        0.00   117664.47        0.00       22.32        0.00      0.00     34.67      0.00    582.22      0.00      0.00      0.00     -0.0787
 144 TERRAR01.SGX       144 SG        0.00   118234.42        0.00        0.00        0.00        0.00   117664.47        0.00       22.32        0.00      0.00     34.67      0.00    582.22      0.00      0.00      0.00     -0.0787
 145 TERRAR01.SGX       145 SG        0.00   118234.42        0.00        0.00        0.00        0.00   117664.47        0.00       22.32        0.00      0.00     34.67      0.00    582.22      0.00      0.00      0.00     -0.0787
 146 TERRAR01.SGX       146 SG        0.00   118234.42        0.00        0.00        0.00        0.00   117664.47        0.00       22.32        0.00      0.00     34.67      0.00    582.22      0.00      0.00      0.00     -0.0787
 147 TERRAR01.SGX       147 SG        0.00   118234.42        0.00        0.00        0.00        0.00   117664.47        0.00       22.32        0.00      0.00     34.67      0.00    582.22      0.00      0.00      0.00     -0.0787
 148 TERRAR01.SGX       148 SG        0.00   118234.42        0.00        0.00        0.00        0.00   117664.47        0.00       22.32        0.00      0.00     34.67      0.00    582.22      0.00      0.00      0.00     -0.0787
 149 TERRAR01.SGX       149 SG        0.00   118234.42        0.00        0.00        0.00        0.00   117664.47        0.00       22.32        0.00      0.00     34.67      0.00    582.22      0.00      0.00      0.00     -0.0787
 150 TERRAR01.SGX       150 SG        0.00   118234.42        0.00        0.00        0.00        0.00   117664.47        0.00       22.32        0.00      0.00     34.67      0.00    582.22      0.00      0.00      0.00     -0.0787
 151 TERRAR01.SGX       151 SG        0.00   118234.42        0.00        0.00        0.00        0.00   117664.47        0.00       22.32        0.00      0.00     34.67      0.00    582.22      0.00      0.00      0.00     -0.0787
 152 TERRAR01.SGX       152 SG        0.00   118234.42        0.00        0.00        0.00        0.00   117664.47        0.00       22.32        0.00      0.00     34.67      0.00    582.22      0.00      0.00      0.00     -0.0787
 153 TERRAR01.SGX       153 SG        0.00   118234.42        0.00        0.00        0.00        0.00   117664.47        0.00       22.32        0.00      0.00     34.67      0.00    582.22      0.00      0.00      0.00     -0.0787
 154 TERRAR01.SGX       154 SG        0.00   118234.42        0.00        0.00        0.00        0.00   117664.47        0.00       22.32        0.00      0.00     34.67      0.00    582.22      0.00      0.00      0.00     -0.0787
 155 TERRAR01.SGX       155 SG        0.00   118234.42        0.00        0.00        0.00        0.00   117664.47        0.00       22.32        0.00      0.00     34.67      0.00    582.22      0.00      0.00      0.00     -0.0787
 156 TERRAR01.SGX       156 SG        0.00   118234.42        0.00        0.00        0.00        0.00   117664.47        0.00       22.32        0.00      0.00     34.67      0.00    582.22      0.00      0.00      0.00     -0.0787
 157 TERRAR01.SGX       157 SG        0.00   118234.42        0.00        0.00        0.00        0.00   117664.47        0.00       22.32        0.00      0.00     34.67      0.00    582.22      0.00      0.00      0.00     -0.0787
 158 TERRAR01.SGX       158 SG        0.00   118234.42        0.00        0.00        0.00        0.00   117664.47        0.00       22.32        0.00      0.00     34.67      0.00    582.22      0.00      0.00      0.00     -0.0787
 159 TERRAR01.SGX       159 SG        0.00   118234.42        0.00        0.00        0.00        0.00   117664.47        0.00       22.32        0.00      0.00     34.67      0.00    582.22      0.00      0.00      0.00     -0.0787
 160 TERRAR01.SGX       160 SG        0.00   118234.42        0.00        0.00        0.00        0.00   117664.47        0.00       22.32        0.00      0.00     34.67      0.00    582.22      0.00      0.00      0.00     -0.0787
 161 TERRAR01.SGX       161 SG        0.00   118234.42        0.00        0.00        0.00        0.00   117664.47        0.00       22.32        0.00      0.00     34.67      0.00    582.22      0.00      0.00      0.00     -0.0787
 162 TERRAR01.SGX       162 SG        0.00   118234.42        0.00        0.00        0.00        0.00   117664.47        0.00       22.32        0.00      0.00     34.67      0.00    582.22      0.00      0.00      0.00     -0.0787
 163 TERRAR01.SGX       163 SG        0.00   118234.42        0.00        0.00        0.00        0.00   117664.47        0.00       22.32        0.00      0.00     34.67      0.00    582.22      0.00      0.00      0.00     -0.0787
 164 TERRAR01.SGX       164 SG        0.00   118234.42        0.00        0.00        0.00        0.00   117664.47        0.00       22.32        0.00      0.00     34.67      0.00    582.22      0.00      0.00      0.00     -0.0787
 165 TERRAR01.SGX       165 SG        0.00   118234.42        0.00        0.00        0.00        0.00   117664.47        0.00       22.32        0.00      0.00     34.67      0.00    582.22      0.00      0.00      0.00     -0.0787
 166 TERRAR01.SGX       166 SG        0.00   118234.42        0.00        0.00        0.00        0.00   117664.47        0.00       22.32        0.00      0.00     34.67      0.00    582.22      0.00      0.00      0.00     -0.0787
 167 TERRAR01.SGX       167 SG        0.00   118234.42        0.00        0.00        0.00        0.00   117664.47        0.00       22.32        0.00      0.00     34.67      0.00    582.22      0.00      0.00      0.00     -0.0787
 168 TERRAR01.SGX       168 SG        0.00   118234.42        0.00        0.00        0.00        0.00   117664.47        0.00       22.32        0.00      0.00     34.67      0.00    582.22      0.00      0.00      0.00     -0.0787
 169 TERRAR01.SGX       169 SG        0.00   118234.42        0.00        0.00        0.00        0.00   117664.47        0.00       22.32        0.00      0.00     34.67      0.00    582.22      0.00      0.00      0.00     -0.0787
 170 TERRAR01.SGX       170 SG        0.00   118234.42        0.00        0.00        0.00        0.00   117664.47        0.00       22.32        0.00      0.00     34.67      0.00    582.22      0.00      0.00      0.00     -0.0787
 171 TERRAR01.SGX       171 SG        0.00   118234.42        0.00        0.00        0.00        0.00   117664.47        0.00       22.32        0.00      0.00     34.67      0.00    582.22      0.00      0.00      0.00     -0.0787
 172 TERRAR01.SGX       172 SG        0.00   118234.42        0.00        0.00        0.00        0.00   117664.47        0.00       22.32        0.00      0.00     34.67      0.00    582.22      0.00      0.00      0.00     -0.0787
 173 TERRAR01.SGX       173 SG        0.00   118234.42        0.00        0.00        0.00        0.00   117664.47        0.00       22.32        0.00      0.00     34.67      0.00    582.22      0.00      0.00      0.00     -0.0787
 174 TERRAR01.SGX       174 SG        0.00   118234.42        0.00        0.00        0.00        0.00   117664.47        0.00       22.32        0.00      0.00     34.67      0.00    582.22      0.00      0.00      0.00     -0.0787
 175 TERRAR01.SGX       175 SG        0.00   118234.42        0.00        0.00        0.00        0.00   117664.47        0.00       22.32        0.00      0.00     34.67      0.00    582.22      0.00      0.00      0.00     -0.0787
 176 TERRAR01.SGX       176 SG        0.00   118234.42        0.00        0.00        0.00        0.00   117664.47        0.00       22.32        0.00      0.00     34.67      0.00    582.22      0.00      0.00      0.00     -0.0787
 177 TERRAR01.SGX       177 SG        0.00   118234.42        0.00        0.00        0.00        0.00   117664.47        0.00       22.32        0.00      0.00     34.67      0.00    582.22      0.00      0.00      0.00     -0.0787
 178 TERRAR01.SGX       178 SG        0.00   118234.42        0.00        0.00        0.00        0.00   117664.47        0.00       22.32        0.00      0.00     34.67      0.00    582.22      0.00      0.00      0.00     -0.0787
 179 TERRAR01.SGX       179 SG        0.00   118234.42        0.00        0.00        0.00        0.00   117664.47        0.00       22.32        0.00      0.00     34.67      0.00    582.22      0.00      0.00      0.00     -0.0787
 180 TERRAR01.SGX       180 SG        0.00   118234.42        0.00        0.00        0.00        0.00   117664.47        0.00       22.32        0.00      0.00     34.67      0.00    582.22      0.00      0.00      0.00     -0.0787
 181 TERRAR01.SGX       181 SG        0.00   118234.42        0.00        0.00        0.00        0.00   117664.47        0.00       22.32        0.00      0.00     34.67      0.00    582.22      0.00      0.00      0.00     -0.0787
 182 TERRAR01.SGX       182 SG        0.00   118234.42        0.00        0.00        0.00        0.00   117664.47        0.00       22.32        0.00      0.00     34.67      0.00    582.22      0.00      0.00      0.00     -0.0787
 183 TERRAR01.SGX       183 SG        0.00   118234.42        0.00        0.00        0.00        0.00   117664.47        0.00       22.32        0.00      0.00     34.67      0.00    582.22      0.00      0.00      0.00     -0.0787
 184 TERRAR01.SGX       184 SG        0.00   118234.42        0.00        0.00        0.00        0.00   117664.47        0.00       22.32        0.00      0.00     34.67      0.00    582.22      0.00      0.00      0.00     -0.0787
 185 TERRAR01.SGX       185 SG        0.00   118234.42        0.00        0.00        0.00        0.00   117664.47        0.00       22.32        0.00      0.00     34.67      0.00    582.22      0.00      0.00      0.00     -0.0787
 186 TERRAR01.SGX       186 SG        0.00   118234.42        0.00        0.00        0.00        0.00   117664.47        0.00       22.32        0.00      0.00     34.67      0.00    582.22      0.00      0.00      0.00     -0.0787
 187 TERRAR01.SGX       187 SG        0.00   118234.42        0.00        0.00        0.00        0.00   117664.47        0.00       22.32        0.00      0.00     34.67      0.00    582.22      0.00      0.00      0.00     -0.0787
 188 TERRAR01.SGX       188 SG        0.00   118234.42        0.00        0.00        0.00        0.00   117664.47        0.00       22.32        0.00      0.00     34.67      0.00    582.22      0.00      0.00      0.00     -0.0787
 189 TERRAR01.SGX       189 SG        0.00   118234.42        0.00        0.00        0.00        0.00   117664.47        0.00       22.32        0.00      0.00     34.67      0.00    582.22      0.00      0.00      0.00     -0.0787
 190 TERRAR01.SGX       190 SG        0.00   118234.42        0.00        0.00        0.00        0.00   117664.47        0.00       22.32        0.00      0.00     34.67      0.00    582.22      0.00      0.00      0.00     -0.0787
 191 TERRAR01.SGX       191 SG        0.00   118234.42        0.00        0.00        0.00        0.00   117664.47        0.00       22.32        0.00      0.00     34.67      0.00    582.22      0.00      0.00      0.00     -0.0787
 192 TERRAR01.SGX       192 SG        0.00   118234.42        0.00        0.00        0.00        0.00   117664.47        0.00       22.32        0.00      0.00     34.67      0.00    582.22      0.00      0.00      0.00     -0.0787
 193 TERRAR01.SGX       193 SG        0.00   118234.42        0.00        0.00        0.00        0.00   117664.47        0.00       22.32        0.00      0.00     34.67      0.00    582.22      0.00      0.00      0.00     -0.0787
 194 TERRAR01.SGX       194 SG        0.00   118234.42        0.00        0.00        0.00        0.00   117664.47        0.00       22.32        0.00      0.00     34.67      0.00    582.22      0.00      0.00      0.00     -0.0787
 195 TERRAR01.SGX       195 SG        0.00   118234.42        0.00        0.00        0.00        0.00   117664.47        0.00       22.32        0.00      0.00     34.67      0.00    582.22      0.00      0.00      0.00     -0.0787
 196 TERRAR01.SGX       196 SG        0.00   118234.42        0.00        0.00        0.00        0.00   117664.47        0.00       22.32        0.00      0.00     34.67      0.00    582.22      0.00      0.00      0.00     -0.0787
 197 TERRAR01.SGX       197 SG        0.00   118234.42        0.00        0.00        0.00        0.00   117664.47        0.00       22.32        0.00      0.00     34.67      0.00    582.22      0.00      0.00      0.00     -0.0787
 198 TERRAR01.SGX       198 SG        0.00   118234.42        0.00        0.00        0.00        0.00   117664.47        0.00       22.32        0.00      0.00     34.67      0.00    582.22      0.00      0.00      0.00     -0.0787
 199 TERRAR01.SGX       199 SG        0.00   118234.42        0.00        0.00        0.00        0.00   117664.47        0.00       22.32        0.00      0.00     34.67      0.00    582.22      0.00      0.00      0.00     -0.0787
 200 TERRAR01.SGX       200 SG        0.00   118234.42        0.00        0.00        0.00        0.00   117664.47        0.00       22.32        0.00      0.00     34.67      0.00    582.22      0.00      0.00      0.00     -0.0787
 201 TERRAR01.SGX       201 SG        0.00   118234.42        0.00        0.00        0.00        0.00   117664.47        0.00       22.32        0.00      0.00     34.67      0.00    582.22      0.00      0.00      0.00     -0.0787
 202 TERRAR01.SGX       202 SG        0.00   118234.42        0.00        0.00        0.00        0.00   117664.47        0.00       22.32        0.00      0.00     34.67      0.00    582.22      0.00      0.00      0.00     -0.0787
 203 TERRAR01.SGX       203 SG        0.00   118234.42        0.00        0.00        0.00        0.00   117664.47        0.00       22.32        0.00      0.00     34.67      0.00    582.22      0.00      0.00      0.00     -0.0787
 204 TERRAR01.SGX       204 SG        0.00   118234.42        0.00        0.00        0.00        0.00   117664.47        0.00       22.32        0.00      0.00     34.67      0.00    582.22      0.00      0.00      0.00     -0.0787
 205 TERRAR01.SGX       205 SG        0.00   118234.42        0.00        0.00        0.00        0.00   117664.47        0.00       22.32        0.00      0.00     34.67      0.00    582.22      0.00      0.00      0.00     -0.0787
 206 TERRAR01.SGX       206 SG        0.00   118234.42        0.00        0.00        0.00        0.00   117664.47        0.00       22.32        0.00      0.00     34.67      0.00    582.22      0.00      0.00      0.00     -0.0787
 207 TERRAR01.SGX       207 SG        0.00   118234.42        0.00        0.00        0.00        0.00   117664.47        0.00       22.32        0.00      0.00     34.67      0.00    582.22      0.00      0.00      0.00     -0.0787
 208 TERRAR01.SGX       208 SG        0.00   118234.42        0.00        0.00        0.00        0.00   117664.47        0.00       22.32        0.00      0.00     34.67      0.00    582.22      0.00      0.00      0.00     -0.0787
 209 TERRAR01.SGX       209 SG        0.00   118234.42        0.00        0.00        0.00        0.00   117664.47        0.00       22.32        0.00      0.00     34.67      0.00    582.22      0.00      0.00      0.00     -0.0787
 210 TERRAR01.SGX       210 SG        0.00   118234.42        0.00        0.00        0.00        0.00   117664.47        0.00       22.32        0.00      0.00     34.67      0.00    582.22      0.00      0.00      0.00     -0.0787
 211 TERRAR01.SGX       211 SG        0.00   118234.42        0.00        0.00        0.00        0.00   117664.47        0.00       22.32        0.00      0.00     34.67      0.00    582.22      0.00      0.00      0.00     -0.0787
 212 TERRAR01.SGX       212 SG        0.00   118234.42        0.00        0.00        0.00        0.00   117664.47        0.00       22.32        0.00      0.00     34.67      0.00    582.22      0.00      0.00      0.00     -0.0787
 213 TERRAR01.SGX       213 SG        0.00   118234.42        0.00        0.00        0.00        0.00   117664.47        0.00       22.32        0.00      0.00     34.67      0.00    582.22      0.00      0.00      0.00     -0.0787
 214 TERRAR01.SGX       214 SG        0.00   118234.42        0.00        0.00        0.00        0.00   117664.47        0.00       22.32        0.00      0.00     34.67      0.00    582.22      0.00      0.00      0.00     -0.0787
 215 TERRAR01.SGX       215 SG        0.00   118234.42        0.00        0.00        0.00        0.00   117664.47        0.00       22.32        0.00      0.00     34.67      0.00    582.22      0.00      0.00      0.00     -0.0787
 216 TERRAR01.SGX       216 SG        0.00   118234.42        0.00        0.00        0.00        0.00   117664.47        0.00       22.32        0.00      0.00     34.67      0.00    582.22      0.00      0.00      0.00     -0.0787
 217 TERRAR01.SGX       217 SG        0.00   118234.42        0.00        0.00        0.00        0.00   117664.47        0.00       22.32        0.00      0.00     34.67      0.00    582.22      0.00      0.00      0.00     -0.0787
 218 TERRAR01.SGX       218 SG        0.00   118234.42        0.00        0.00        0.00        0.00   117664.47        0.00       22.32        0.00      0.00     34.67      0.00    582.22      0.00      0.00      0.00     -0.0787
 219 TERRAR01.SGX       219 SG        0.00   118234.42        0.00        0.00        0.00        0.00   117664.47        0.00       22.32        0.00      0.00     34.67      0.00    582.22      0.00      0.00      0.00     -0.0787
 220 TERRAR01.SGX       220 SG        0.00   118234.42        0.00        0.00        0.00        0.00   117664.47        0.00       22.32        0.00      0.00     34.67      0.00    582.22      0.00      0.00      0.00     -0.0787
 221 TERRAR01.SGX       221 SG        0.00   118234.42        0.00        0.00        0.00        0.00   117664.47        0.00       22.32        0.00      0.00     34.67      0.00    582.22      0.00      0.00      0.00     -0.0787
 222 TERRAR01.SGX       222 SG        0.00   118234.42        0.00        0.00        0.00        0.00   117664.47        0.00       22.32        0.00      0.00     34.67      0.00    582.22      0.00      0.00      0.00     -0.0787
 223 TERRAR01.SGX       223 SG        0.00   118234.42        0.00        0.00        0.00        0.00   117664.47        0.00       22.32        0.00      0.00     34.67      0.00    582.22      0.00      0.00      0.00     -0.0787
 224 TERRAR01.SGX       224 SG        0.00   118234.42        0.00        0.00        0.00        0.00   117664.47        0.00       22.32        0.00      0.00     34.67      0.00    582.22      0.00      0.00      0.00     -0.0787
 225 TERRAR01.SGX       225 SG        0.00   118234.42        0.00        0.00        0.00        0.00   117664.47        0.00       22.32        0.00      0.00     34.67      0.00    582.22      0.00      0.00      0.00     -0.0787
 226 TERRAR01.SGX       226 SG        0.00   118234.42        0.00        0.00        0.00        0.00   117664.47        0.00       22.32        0.00      0.00     34.67      0.00    582.22      0.00      0.00      0.00     -0.0787
 227 TERRAR01.SGX       227 SG        0.00   118234.42        0.00        0.00        0.00        0.00   117664.47        0.00       22.32        0.00      0.00     34.67      0.00    582.22      0.00      0.00      0.00     -0.0787
 228 TERRAR01.SGX       228 SG        0.00   118234.42        0.00        0.00        0.00        0.00   117664.47        0.00       22.32        0.00      0.00     34.67      0.00    582.22      0.00      0.00      0.00     -0.0787
 229 TERRAR01.SGX       229 SG        0.00   118234.42        0.00        0.00        0.00        0.00   117664.47        0.00       22.32        0.00      0.00     34.67      0.00    582.22      0.00      0.00      0.00     -0.0787
 230 TERRAR01.SGX       230 SG        0.00   118234.42        0.00        0.00        0.00        0.00   117664.47        0.00       22.32        0.00      0.00     34.67      0.00    582.22      0.00      0.00      0.00     -0.0787
 231 TERRAR01.SGX       231 SG        0.00   118234.42        0.00        0.00        0.00        0.00   117664.47        0.00       22.32        0.00      0.00     34.67      0.00    582.22      0.00      0.00      0.00     -0.0787
 232 TERRAR01.SGX       232 SG        0.00   118234.42        0.00        0.00        0.00        0.00   117664.47        0.00       22.32        0.00      0.00     34.67      0.00    582.22      0.00      0.00      0.00     -0.0787
 233 TERRAR01.SGX       233 SG        0.00   118234.42        0.00        0.00        0.00        0.00   117664.47        0.00       22.32        0.00      0.00     34.67      0.00    582.22      0.00      0.00      0.00     -0.0787
 234 TERRAR01.SGX       234 SG        0.00   118234.42        0.00        0.00        0.00        0.00   117664.47        0.00       22.32        0.00      0.00     34.67      0.00    582.22      0.00      0.00      0.00     -0.0787
 235 TERRAR01.SGX       235 SG        0.00   118234.42        0.00        0.00        0.00        0.00   117664.47        0.00       22.32        0.00      0.00     34.67      0.00    582.22      0.00      0.00      0.00     -0.0787
 236 TERRAR01.SGX       236 SG        0.00   118234.42        0.00        0.00        0.00        0.00   117664.47        0.00       22.32        0.00      0.00     34.67      0.00    582.22      0.00      0.00      0.00     -0.0787
 237 TERRAR01.SGX       237 SG        0.00   118234.42        0.00        0.00        0.00        0.00   117664.47        0.00       22.32        0.00      0.00     34.67      0.00    582.22      0.00      0.00      0.00     -0.0787
 238 TERRAR01.SGX       238 SG        0.00   118234.42        0.00        0.00        0.00        0.00   117664.47        0.00       22.32        0.00      0.00     34.67      0.00    582.22      0.00      0.00      0.00     -0.0787
 239 TERRAR01.SGX       239 SG        0.00   118234.42        0.00        0.00        0.00        0.00   117664.47        0.00       22.32        0.00      0.00     34.67      0.00    582.22      0.00      0.00      0.00     -0.0787
 240 TERRAR01.SGX       240 SG        0.00   118234.42        0.00        0.00        0.00        0.00   117664.47        0.00       22.32        0.00      0.00     34.67      0.00    582.22      0.00      0.00      0.00     -0.0787
 241 TERRAR01.SGX       241 SG        0.00   118234.42        0.00        0.00        0.00        0.00   117664.47        0.00       22.32        0.00      0.00     34.67      0.00    582.22      0.00      0.00      0.00     -0.0787
 242 TERRAR01.SGX       242 SG        0.00   118234.42        0.00        0.00        0.00        0.00   117664.47        0.00       22.32        0.00      0.00     34.67      0.00    582.22      0.00      0.00      0.00     -0.0787
 243 TERRAR01.SGX       243 SG        0.00   118234.42        0.00        0.00        0.00        0.00   117664.47        0.00       22.32        0.00      0.00     34.67      0.00    582.22      0.00      0.00      0.00     -0.0787
 244 TERRAR01.SGX       244 SG        0.00   118234.42        0.00        0.00        0.00        0.00   117664.47        0.00       22.32        0.00      0.00     34.67      0.00    582.22      0.00      0.00      0.00     -0.0787
 245 TERRAR01.SGX       245 SG        0.00   118234.42        0.00        0.00        0.00        0.00   117664.47        0.00       22.32        0.00      0.00     34.67      0.00    582.22      0.00      0.00      0.00     -0.0787
 246 TERRAR01.SGX       246 SG        0.00   118234.42        0.00        0.00        0.00        0.00   117664.47        0.00       22.32        0.00      0.00     34.67      0.00    582.22      0.00      0.00      0.00     -0.0787
 247 TERRAR01.SGX       247 SG        0.00   118234.42        0.00        0.00        0.00        0.00   117664.47        0.00       22.32        0.00      0.00     34.67      0.00    582.22      0.00      0.00      0.00     -0.0787
 248 TERRAR01.SGX       248 SG        0.00   118234.42        0.00        0.00        0.00        0.00   117664.47        0.00       22.32        0.00      0.00     34.67      0.00    582.22      0.00      0.00      0.00     -0.0787
 249 TERRAR01.SGX       249 SG        0.00   118234.42        0.00        0.00        0.00        0.00   117664.47        0.00       22.32        0.00      0.00     34.67      0.00    582.22      0.00      0.00      0.00     -0.0787
 250 TERRAR01.SGX       250 SG        0.00   118234.42        0.00        0.00        0.00        0.00   117664.47        0.00       22.32        0.00      0.00     34.67      0.00    582.22      0.00      0.00      0.00     -0.0787
 251 TERRAR01.SGX       251 SG        0.00   118234.42        0.00        0.00        0.00        0.00   117664.47        0.00       22.32        0.00      0.00     34.67      0.00    582.22      0.00      0.00      0.00     -0.0787
 252 TERRAR01.SGX       252 SG        0.00   118234.42        0.00        0.00        0.00        0.00   117664.47        0.00       22.32        0.00      0.00     34.67      0.00    582.22      0.00      0.00      0.00     -0.0787
 253 TERRAR01.SGX       253 SG        0.00   118234.42        0.00        0.00        0.00        0.00   117664.47        0.00       22.32        0.00      0.00     34.67      0.00    582.22      0.00      0.00      0.00     -0.0787
 254 TERRAR01.SGX       254 SG        0.00   118234.42        0.00        0.00        0.00        0.00   117664.47        0.00       22.32        0.00      0.00     34.67      0.00    582.22      0.00      0.00      0.00     -0.0787
 255 TERRAR01.SGX       255 SG        0.00   118234.42        0.00        0.00        0.00        0.00   117664.47        0.00       22.32        0.00      0.00     34.67      0.00    582.22      0.00      0.00      0.00     -0.0787
 256 TERRAR01.SGX       256 SG        0.00   118234.42        0.00        0.00        0.00        0.00   117664.47        0.00       22.32        0.00      0.00     34.67      0.00    582.22      0.00      0.00      0.00     -0.0787
 257 TERRAR01.SGX       257 SG        0.00   118234.42        0.00        0.00        0.00        0.00   117664.47        0.00       22.32        0.00      0.00     34.67      0.00    582.22      0.00      0.00      0.00     -0.0787
 258 TERRAR01.SGX       258 SG        0.00   118234.42        0.00        0.00        0.00        0.00   117664.47        0.00       22.32        0.00      0.00     34.67      0.00    582.22      0.00      0.00      0.00     -0.0787
 259 TERRAR01.SGX       259 SG        0.00   118234.42        0.00        0.00        0.00        0.00   117664.47        0.00       22.32        0.00      0.00     34.67      0.00    582.22      0.00      0.00      0.00     -0.0787
 260 TERRAR01.SGX       260 SG        0.00   118234.42        0.00        0.00        0.00        0.00   117664.47        0.00       22.32        0.00      0.00     34.67      0.00    582.22      0.00      0.00      0.00     -0.0787
 261 TERRAR01.SGX       261 SG        0.00   118234.42        0.00        0.00        0.00        0.00   117664.47        0.00       22.32        0.00      0.00     34.67      0.00    582.22      0.00      0.00      0.00     -0.0787
 262 TERRAR01.SGX       262 SG        0.00   118234.42        0.00        0.00        0.00        0.00   117664.47        0.00       22.32        0.00      0.00     34.67      0.00    582.22      0.00      0.00      0.00     -0.0787
 263 TERRAR01.SGX       263 SG        0.00   118234.42        0.00        0.00        0.00        0.00   117664.47        0.00       22.32        0.00      0.00     34.67      0.00    582.22      0.00      0.00      0.00     -0.0787
 264 TERRAR01.SGX       264 SG        0.00   118234.42        0.00        0.00        0.00        0.00   117664.47        0.00       22.32        0.00      0.00     34.67      0.00    582.22      0.00      0.00      0.00     -0.0787
 265 TERRAR01.SGX       265 SG        0.00   118234.42        0.00        0.00        0.00        0.00   117664.47        0.00       22.32        0.00      0.00     34.67      0.00    582.22      0.00      0.00      0.00     -0.0787
 266 TERRAR01.SGX       266 SG        0.00   118234.42        0.00        0.00        0.00        0.00   117664.47        0.00       22.32        0.00      0.00     34.67      0.00    582.22      0.00      0.00      0.00     -0.0787
 267 TERRAR01.SGX       267 SG        0.00   118234.42        0.00        0.00        0.00        0.00   117664.47        0.00       22.32        0.00      0.00     34.67      0.00    582.22      0.00      0.00      0.00     -0.0787
 268 TERRAR01.SGX       268 SG        0.00   118234.42        0.00        0.00        0.00        0.00   117664.47        0.00       22.32        0.00      0.00     34.67      0.00    582.22      0.00      0.00      0.00     -0.0787
 269 TERRAR01.SGX       269 SG        0.00   118234.42        0.00        0.00        0.00        0.00   117664.47        0.00       22.32        0.00      0.00     34.67      0.00    582.22      0.00      0.00      0.00     -0.0787
 270 TERRAR01.SGX       270 SG        0.00   118234.42        0.00        0.00        0.00        0.00   117664.47        0.00       22.32        0.00      0.00     34.67      0.00    582.22      0.00      0.00      0.00     -0.0787
 271 TERRAR01.SGX       271 SG        0.00   118234.42        0.00        0.00        0.00        0.00   117664.47        0.00       22.32        0.00      0.00     34.67      0.00    582.22      0.00      0.00      0.00     -0.0787
 272 TERRAR01.SGX       272 SG        0.00   118234.42        0.00        0.00        0.00        0.00   117664.47        0.00       22.32        0.00      0.00     34.67      0.00    582.22      0.00      0.00      0.00     -0.0787
 273 TERRAR01.SGX       273 SG        0.00   118234.42        0.00        0.00        0.00        0.00   117664.47        0.00       22.32        0.00      0.00     34.67      0.00    582.22      0.00      0.00      0.00     -0.0787
 274 TERRAR01.SGX       274 SG        0.00   118234.42        0.00        0.00        0.00        0.00   117664.47        0.00       22.32        0.00      0.00     34.67      0.00    582.22      0.00      0.00      0.00     -0.0787
 275 TERRAR01.SGX       275 SG        0.00   118234.42        0.00        0.00        0.00        0.00   117664.47        0.00       22.32        0.00      0.00     34.67      0.00    582.22      0.00      0.00      0.00     -0.0787
 276 TERRAR01.SGX       276 SG        0.00   118234.42        0.00        0.00        0.00        0.00   117664.47        0.00       22.32        0.00      0.00     34.67      0.00    582.22      0.00      0.00      0.00     -0.0787
 277 TERRAR01.SGX       277 SG        0.00   118234.42        0.00        0.00        0.00        0.00   117664.47        0.00       22.32        0.00      0.00     34.67      0.00    582.22      0.00      0.00      0.00     -0.0787
 278 TERRAR01.SGX       278 SG        0.00   118234.42        0.00        0.00        0.00        0.00   117664.47        0.00       22.32        0.00      0.00     34.67      0.00    582.22      0.00      0.00      0.00     -0.0787
 279 TERRAR01.SGX       279 SG        0.00   118234.42        0.00        0.00        0.00        0.00   117664.47        0.00       22.32        0.00      0.00     34.67      0.00    582.22      0.00      0.00      0.00     -0.0787
 280 TERRAR01.SGX       280 SG        0.00   118234.42        0.00        0.00        0.00        0.00   117664.47        0.00       22.32        0.00      0.00     34.67      0.00    582.22      0.00      0.00      0.00     -0.0787
 281 TERRAR01.SGX       281 SG        0.00   118234.42        0.00        0.00        0.00        0.00   117664.47        0.00       22.32        0.00      0.00     34.67      0.00    582.22      0.00      0.00      0.00     -0.0787
 282 TERRAR01.SGX       282 SG        0.00   118234.42        0.00        0.00        0.00        0.00   117664.47        0.00       22.32        0.00      0.00     34.67      0.00    582.22      0.00      0.00      0.00     -0.0787
 283 TERRAR01.SGX       283 SG        0.00   118234.42        0.00        0.00        0.00        0.00   117664.47        0.00       22.32        0.00      0.00     34.67      0.00    582.22      0.00      0.00      0.00     -0.0787
 284 TERRAR01.SGX       284 SG        0.00   118234.42        0.00        0.00        0.00        0.00   117664.47        0.00       22.32        0.00      0.00     34.67      0.00    582.22      0.00      0.00      0.00     -0.0787
 285 TERRAR01.SGX       285 SG        0.00   118234.42        0.00        0.00        0.00        0.00   117664.47        0.00       22.32        0.00      0.00     34.67      0.00    582.22      0.00      0.00      0.00     -0.0787
 286 TERRAR01.SGX       286 SG        0.00   118234.42        0.00        0.00        0.00        0.00   117664.47        0.00       22.32        0.00      0.00     34.67      0.00    582.22      0.00      0.00      0.00     -0.0787
 287 TERRAR01.SGX       287 SG        0.00   118234.42        0.00        0.00        0.00        0.00   117664.47        0.00       22.32        0.00      0.00     34.67      0.00    582.22      0.00      0.00      0.00     -0.0787
 288 TERRAR01.SGX       288 SG        0.00   118234.42        0.00        0.00        0.00        0.00   117664.47        0.00       22.32        0.00      0.00     34.67      0.00    582.22      0.00      0.00      0.00     -0.0787
 289 TERRAR01.SGX       289 SG        0.00   118234.42        0.00        0.00        0.00        0.00   117664.47        0.00       22.32        0.00      0.00     34.67      0.00    582.22      0.00      0.00      0.00     -0.0787
 290 TERRAR01.SGX       290 SG        0.00   118234.42        0.00        0.00        0.00        0.00   117664.47        0.00       22.32        0.00      0.00     34.67      0.00    582.22      0.00      0.00      0.00     -0.0787
 291 TERRAR01.SGX       291 SG        0.00   118234.42        0.00        0.00        0.00        0.00   117664.47        0.00       22.32        0.00      0.00     34.67      0.00    582.22      0.00      0.00      0.00     -0.0787
 292 TERRAR01.SGX       292 SG        0.00   118234.42        0.00        0.00        0.00        0.00   117664.47        0.00       22.32        0.00      0.00     34.67      0.00    582.22      0.00      0.00      0.00     -0.0787
 293 TERRAR01.SGX       293 SG        0.00   118234.42        0.00        0.00        0.00        0.00   117664.47        0.00       22.32        0.00      0.00     34.67      0.00    582.22      0.00      0.00      0.00     -0.0787
 294 TERRAR01.SGX       294 SG        0.00   118234.42        0.00        0.00        0.00        0.00   117664.47        0.00       22.32        0.00      0.00     34.67      0.00    582.22      0.00      0.00      0.00     -0.0787
 295 TERRAR01.SGX       295 SG        0.00   118234.42        0.00        0.00        0.00        0.00   117664.47        0.00       22.32        0.00      0.00     34.67      0.00    582.22      0.00      0.00      0.00     -0.0787
 296 TERRAR01.SGX       296 SG        0.00   118234.42        0.00        0.00        0.00        0.00   117664.47        0.00       22.32        0.00      0.00     34.67      0.00    582.22      0.00      0.00      0.00     -0.0787
 297 TERRAR01.SGX       297 SG        0.00   118234.42        0.00        0.00        0.00        0.00   117664.47        0.00       22.32        0.00      0.00     34.67      0.00    582.22      0.00      0.00      0.00     -0.0787
 298 TERRAR01.SGX       298 SG        0.00   118234.42        0.00        0.00        0.00        0.00   117664.47        0.00       22.32        0.00      0.00     34.67      0.00    582.22      0.00      0.00      0.00     -0.0787
 299 TERRAR01.SGX       299 SG        0.00   118234.42        0.00        0.00        0.00        0.00   117664.47        0.00       22.32        0.00      0.00     34.67      0.00    582.22      0.00      0.00      0.00     -0.0787
 300 TERRAR01.SGX       300 SG        0.00   118234.42        0.00        0.00        0.00        0.00   117664.47        0.00       22.32        0.00      0.00     34.67      0.00    582.22      0.00      0.00      0.00     -0.0787
 301 TERRAR01.SGX       301 SG        0.00   118234.42        0.00        0.00        0.00        0.00   117664.47        0.00       22.32        0.00      0.00     34.67      0.00    582.22      0.00      0.00      0.00     -0.0787
 302 TERRAR01.SGX       302 SG        0.00   118234.42        0.00        0.00        0.00        0.00   117664.47        0.00       22.32        0.00      0.00     34.67      0.00    582.22      0.00      0.00      0.00     -0.0787
 303 TERRAR01.SGX       303 SG        0.00   118234.42        0.00        0.00        0.00        0.00   117664.47        0.00       22.32        0.00      0.00     34.67      0.00    582.22      0.00      0.00      0.00     -0.0787
 304 TERRAR01.SGX       304 SG        0.00   118234.42        0.00        0.00        0.00        0.00   117664.47        0.00       22.32        0.00      0.00     34.67      0.00    582.22      0.00      0.00      0.00     -0.0787
 305 TERRAR01.SGX       305 SG        0.00   118234.42        0.00        0.00        0.00        0.00   117664.47        0.00       22.32        0.00      0.00     34.67      0.00    582.22      0.00      0.00      0.00     -0.0787
 306 TERRAR01.SGX       306 SG        0.00   118234.42        0.00        0.00        0.00        0.00   117664.47        0.00       22.32        0.00      0.00     34.67      0.00    582.22      0.00      0.00      0.00     -0.0787
 307 TERRAR01.SGX       307 SG        0.00   118234.42        0.00        0.00        0.00        0.00   117664.47        0.00       22.32        0.00      0.00     34.67      0.00    582.22      0.00      0.00      0.00     -0.0787
 308 TERRAR01.SGX       308 SG        0.00   118234.42        0.00        0.00        0.00        0.00   117664.47        0.00       22.32        0.00      0.00     34.67      0.00    582.22      0.00      0.00      0.00     -0.0787
 309 TERRAR01.SGX       309 SG        0.00   118234.42        0.00        0.00        0.00        0.00   117664.47        0.00       22.32        0.00      0.00     34.67      0.00    582.22      0.00      0.00      0.00     -0.0787
 310 TERRAR01.SGX       310 SG        0.00   118234.42        0.00        0.00        0.00        0.00   117664.47        0.00       22.32        0.00      0.00     34.67      0.00    582.22      0.00      0.00      0.00     -0.0787
 311 TERRAR01.SGX       311 SG        0.00   118234.42        0.00        0.00        0.00        0.00   117664.47        0.00       22.32        0.00      0.00     34.67      0.00    582.22      0.00      0.00      0.00     -0.0787
 312 TERRAR01.SGX       312 SG        0.00   118234.42        0.00        0.00        0.00        0.00   117664.47        0.00       22.32        0.00      0.00     34.67      0.00    582.22      0.00      0.00      0.00     -0.0787
 313 TERRAR01.SGX       313 SG        0.00   118234.42        0.00        0.00        0.00        0.00   117664.47        0.00       22.32        0.00      0.00     34.67      0.00    582.22      0.00      0.00      0.00     -0.0787
 314 TERRAR01.SGX       314 SG        0.00   118234.42        0.00        0.00        0.00        0.00   117664.47        0.00       22.32        0.00      0.00     34.67      0.00    582.22      0.00      0.00      0.00     -0.0787
 315 TERRAR01.SGX       315 SG        0.00   118234.42        0.00        0.00        0.00        0.00   117664.47        0.00       22.32        0.00      0.00     34.67      0.00    582.22      0.00      0.00      0.00     -0.0787
 316 TERRAR01.SGX       316 SG        0.00   118234.42        0.00        0.00        0.00        0.00   117664.47        0.00       22.32        0.00      0.00     34.67      0.00    582.22      0.00      0.00      0.00     -0.0787
 317 TERRAR01.SGX       317 SG        0.00   118234.42        0.00        0.00        0.00        0.00   117664.47        0.00       22.32        0.00      0.00     34.67      0.00    582.22      0.00      0.00      0.00     -0.0787
 318 TERRAR01.SGX       318 SG        0.00   118234.42        0.00        0.00        0.00        0.00   117664.47        0.00       22.32        0.00      0.00     34.67      0.00    582.22      0.00      0.00      0.00     -0.0787
 319 TERRAR01.SGX       319 SG        0.00   118234.42        0.00        0.00        0.00        0.00   117664.47        0.00       22.32        0.00      0.00     34.67      0.00    582.22      0.00      0.00      0.00     -0.0787
 320 TERRAR01.SGX       320 SG        0.00   118234.42        0.00        0.00        0.00        0.00   117664.47        0.00       22.32        0.00      0.00     34.67      0.00    582.22      0.00      0.00      0.00     -0.0787
 321 TERRAR01.SGX       321 SG        0.00   118234.42        0.00        0.00        0.00        0.00   117664.47        0.00       22.32        0.00      0.00     34.67      0.00    582.22      0.00      0.00      0.00     -0.0787
 322 TERRAR01.SGX       322 SG        0.00   118234.42        0.00        0.00        0.00        0.00   117664.47        0.00       22.32        0.00      0.00     34.67      0.00    582.22      0.00      0.00      0.00     -0.0787
 323 TERRAR01.SGX       323 SG        0.00   118234.42        0.00        0.00        0.00        0.00   117664.47        0.00       22.32        0.00      0.00     34.67      0.00    582.22      0.00      0.00      0.00     -0.0787
 324 TERRAR01.SGX       324 SG        0.00   118234.42        0.00        0.00        0.00        0.00   117664.47        0.00       22.32        0.00      0.00     34.67      0.00    582.22      0.00      0.00      0.00     -0.0787
 325 TERRAR01.SGX       325 SG        0.00   118234.42        0.00        0.00        0.00        0.00   117664.47        0.00       22.32        0.00      0.00     34.67      0.00    582.22      0.00      0.00      0.00     -0.0787
 326 TERRAR01.SGX       326 SG        0.00   118234.42        0.00        0.00        0.00        0.00   117664.47        0.00       22.32        0.00      0.00     34.67      0.00    582.22      0.00      0.00      0.00     -0.0787
 327 TERRAR01.SGX       327 SG        0.00   118234.42        0.00        0.00        0.00        0.00   117664.47        0.00       22.32        0.00      0.00     34.67      0.00    582.22      0.00      0.00      0.00     -0.0787
 328 TERRAR01.SGX       328 SG        0.00   118234.42        0.00        0.00        0.00        0.00   117664.47        0.00       22.32        0.00      0.00     34.67      0.00    582.22      0.00      0.00      0.00     -0.0787
 329 TERRAR01.SGX       329 SG        0.00   118234.42        0.00        0.00        0.00        0.00   117664.47        0.00       22.32        0.00      0.00     34.67      0.00    582.22      0.00      0.00      0.00     -0.0787
 330 TERRAR01.SGX       330 SG        0.00   118234.42        0.00        0.00        0.00        0.00   117664.47        0.00       22.32        0.00      0.00     34.67      0.00    582.22      0.00      0.00      0.00     -0.0787
 331 TERRAR01.SGX       331 SG        0.00   118234.42        0.00        0.00        0.00        0.00   117664.47        0.00       22.32        0.00      0.00     34.67      0.00    582.22      0.00      0.00      0.00     -0.0787
 332 TERRAR01.SGX       332 SG        0.00   118234.42        0.00        0.00        0.00        0.00   117664.47        0.00       22.32        0.00      0.00     34.67      0.00    582.22      0.00      0.00      0.00     -0.0787
 333 TERRAR01.SGX       333 SG        0.00   118234.42        0.00        0.00        0.00        0.00   117664.47        0.00       22.32        0.00      0.00     34.67      0.00    582.22      0.00      0.00      0.00     -0.0787
 334 TERRAR01.SGX       334 SG        0.00   118234.42        0.00        0.00        0.00        0.00   117664.47        0.00       22.32        0.00      0.00     34.67      0.00    582.22      0.00      0.00      0.00     -0.0787
 335 TERRAR01.SGX       335 SG        0.00   118234.42        0.00        0.00        0.00        0.00   117664.47        0.00       22.32        0.00      0.00     34.67      0.00    582.22      0.00      0.00      0.00     -0.0787
 336 TERRAR01.SGX       336 SG        0.00   118234.42        0.00        0.00        0.00        0.00   117664.47        0.00       22.32        0.00      0.00     34.67      0.00    582.22      0.00      0.00      0.00     -0.0787
 337 TERRAR01.SGX       337 SG        0.00   118234.42        0.00        0.00        0.00        0.00   117664.47        0.00       22.32        0.00      0.00     34.67      0.00    582.22      0.00      0.00      0.00     -0.0787
 338 TERRAR01.SGX       338 SG        0.00   118234.42        0.00        0.00        0.00        0.00   117664.47        0.00       22.32        0.00      0.00     34.67      0.00    582.22      0.00      0.00      0.00     -0.0787
 339 TERRAR01.SGX       339 SG        0.00   118234.42        0.00        0.00        0.00        0.00   117664.47        0.00       22.32        0.00      0.00     34.67      0.00    582.22      0.00      0.00      0.00     -0.0787
 340 TERRAR01.SGX       340 SG        0.00   118234.42        0.00        0.00        0.00        0.00   117664.47        0.00       22.32        0.00      0.00     34.67      0.00    582.22      0.00      0.00      0.00     -0.0787
 341 TERRAR01.SGX       341 SG        0.00   118234.42        0.00        0.00        0.00        0.00   117664.47        0.00       22.32        0.00      0.00     34.67      0.00    582.22      0.00      0.00      0.00     -0.0787
 342 TERRAR01.SGX       342 SG        0.00   118234.42        0.00        0.00        0.00        0.00   117664.47        0.00       22.32        0.00      0.00     34.67      0.00    582.22      0.00      0.00      0.00     -0.0787
 343 TERRAR01.SGX       343 SG        0.00   118234.42        0.00        0.00        0.00        0.00   117664.47        0.00       22.32        0.00      0.00     34.67      0.00    582.22      0.00      0.00      0.00     -0.0787
 344 TERRAR01.SGX       344 SG        0.00   118234.42        0.00        0.00        0.00        0.00   117664.47        0.00       22.32        0.00      0.00     34.67      0.00    582.22      0.00      0.00      0.00     -0.0787
 345 TERRAR01.SGX       345 SG        0.00   118234.42        0.00        0.00        0.00        0.00   117664.47        0.00       22.32        0.00      0.00     34.67      0.00    582.22      0.00      0.00      0.00     -0.0787
 346 TERRAR01.SGX       346 SG        0.00   118234.42        0.00        0.00        0.00        0.00   117664.47        0.00       22.32        0.00      0.00     34.67      0.00    582.22      0.00      0.00      0.00     -0.0787
 347 TERRAR01.SGX       347 SG        0.00   118234.42        0.00        0.00        0.00        0.00   117664.47        0.00       22.32        0.00      0.00     34.67      0.00    582.22      0.00      0.00      0.00     -0.0787
 348 TERRAR01.SGX       348 SG        0.00   118234.42        0.00        0.00        0.00        0.00   117664.47        0.00       22.32        0.00      0.00     34.67      0.00    582.22      0.00      0.00      0.00     -0.0787
 349 TERRAR01.SGX       349 SG        0.00   118234.42        0.00        0.00        0.00        0.00   117664.47        0.00       22.32        0.00      0.00     34.67      0.00    582.22      0.00      0.00      0.00     -0.0787
 350 TERRAR01.SGX       350 SG        0.00   118234.42        0.00        0.00        0.00        0.00   117664.47        0.00       22.32        0.00      0.00     34.67      0.00    582.22      0.00      0.00      0.00     -0.0787
 351 TERRAR01.SGX       351 SG        0.00   118234.42        0.00        0.00        0.00        0.00   117664.47        0.00       22.32        0.00      0.00     34.67      0.00    582.22      0.00      0.00      0.00     -0.0787
 352 TERRAR01.SGX       352 SG        0.00   118234.42        0.00        0.00        0.00        0.00   117664.47        0.00       22.32        0.00      0.00     34.67      0.00    582.22      0.00      0.00      0.00     -0.0787
 353 TERRAR01.SGX       353 SG        0.00   118234.42        0.00        0.00        0.00        0.00   117664.47        0.00       22.32        0.00      0.00     34.67      0.00    582.22      0.00      0.00      0.00     -0.0787
 354 TERRAR01.SGX       354 SG        0.00   118234.42        0.00        0.00        0.00        0.00   117664.47        0.00       22.32        0.00      0.00     34.67      0.00    582.22      0.00      0.00      0.00     -0.0787
 355 TERRAR01.SGX       355 SG        0.00   118234.42        0.00        0.00        0.00        0.00   117664.47        0.00       22.32        0.00      0.00     34.67      0.00    582.22      0.00      0.00      0.00     -0.0787
 356 TERRAR01.SGX       356 SG        0.00   118234.42        0.00        0.00        0.00        0.00   117664.47        0.00       22.32        0.00      0.00     34.67      0.00    582.22      0.00      0.00      0.00     -0.0787
 357 TERRAR01.SGX       357 SG        0.00   118234.42        0.00        0.00        0.00        0.00   117664.47        0.00       22.32        0.00      0.00     34.67      0.00    582.22      0.00      0.00      0.00     -0.0787
 358 TERRAR01.SGX       358 SG        0.00   118234.42        0.00        0.00        0.00        0.00   117664.47        0.00       22.32        0.00      0.00     34.67      0.00    582.22      0.00      0.00      0.00     -0.0787
 359 TERRAR01.SGX       359 SG        0.00   118234.42        0.00        0.00        0.00        0.00   117664.47        0.00       22.32        0.00      0.00     34.67      0.00    582.22      0.00      0.00      0.00     -0.0787
 360 TERRAR01.SGX       360 SG        0.00   118234.42        0.00        0.00        0.00        0.00   117664.47        0.00       22.32        0.00      0.00     34.67      0.00    582.22      0.00      0.00      0.00     -0.0787
 361 TERRAR01.SGX       361 SG        0.00   118234.42        0.00        0.00        0.00        0.00   117664.47        0.00       22.32        0.00      0.00     34.67      0.00    582.22      0.00      0.00      0.00     -0.0787
 362 TERRAR01.SGX       362 SG        0.00   118234.42        0.00        0.00        0.00        0.00   117664.47        0.00       22.32        0.00      0.00     34.67      0.00    582.22      0.00      0.00      0.00     -0.0787
 363 TERRAR01.SGX       363 SG        0.00   118234.42        0.00        0.00        0.00        0.00   117664.47        0.00       22.32        0.00      0.00     34.67      0.00    582.22      0.00      0.00      0.00     -0.0787
 364 TERRAR01.SGX       364 SG        0.00   118234.42        0.00        0.00        0.00        0.00   117664.47        0.00       22.32        0.00      0.00     34.67      0.00    582.22      0.00      0.00      0.00     -0.0787
 365 TERRAR01.SGX       365 SG        0.00   118234.42        0.00        0.00        0.00        0.00   117664.47        0.00       22.32        0.00      0.00     34.67      0.00    582.22      0.00      0.00      0.00     -0.0787
 366 TERRAR01.SGX       366 SG        0.00   118234.42        0.00        0.00        0.00        0.00   117664.47        0.00       22.32        0.00      0.00     34.67      0.00    582.22      0.00      0.00      0.00     -0.0787
 367 TERRAR01.SGX       367 SG        0.00   118234.42        0.00        0.00        0.00        0.00   117664.47        0.00       22.32        0.00      0.00     34.67      0.00    582.22      0.00      0.00      0.00     -0.0787
 368 TERRAR01.SGX       368 SG        0.00   118234.42        0.00        0.00        0.00        0.00   117664.47        0.00       22.32        0.00      0.00     34.67      0.00    582.22      0.00      0.00      0.00     -0.0787
 369 TERRAR01.SGX       369 SG        0.00   118234.42        0.00        0.00        0.00        0.00   117664.47        0.00       22.32        0.00      0.00     34.67      0.00    582.22      0.00      0.00      0.00     -0.0787
 370 TERRAR01.SGX       370 SG        0.00   118234.42        0.00        0.00        0.00        0.00   117664.47        0.00       22.32        0.00      0.00     34.67      0.00    582.22      0.00      0.00      0.00     -0.0787
 371 TERRAR01.SGX       371 SG        0.00   118234.42        0.00        0.00        0.00        0.00   117664.47        0.00       22.32        0.00      0.00     34.67      0.00    582.22      0.00      0.00      0.00     -0.0787
 372 TERRAR01.SGX       372 SG        0.00   118234.42        0.00        0.00        0.00        0.00   117664.47        0.00       22.32        0.00      0.00     34.67      0.00    582.22      0.00      0.00      0.00     -0.0787
 373 TERRAR01.SGX       373 SG        0.00   118234.42        0.00        0.00        0.00        0.00   117664.47        0.00       22.32        0.00      0.00     34.67      0.00    582.22      0.00      0.00      0.00     -0.0787
 374 TERRAR01.SGX       374 SG        0.00   118234.42        0.00        0.00        0.00        0.00   117664.47        0.00       22.32        0.00      0.00     34.67      0.00    582.22      0.00      0.00      0.00     -0.0787
 375 TERRAR01.SGX       375 SG        0.00   118234.42        0.00        0.00        0.00        0.00   117664.47        0.00       22.32        0.00      0.00     34.67      0.00    582.22      0.00      0.00      0.00     -0.0787
 376 TERRAR01.SGX       376 SG        0.00   118234.42        0.00        0.00        0.00        0.00   117664.47        0.00       22.32        0.00      0.00     34.67      0.00    582.22      0.00      0.00      0.00     -0.0787
 377 TERRAR01.SGX       377 SG        0.00   118234.42        0.00        0.00        0.00        0.00   117664.47        0.00       22.32        0.00      0.00     34.67      0.00    582.22      0.00      0.00      0.00     -0.0787
 378 TERRAR01.SGX       378 SG        0.00   118234.42        0.00        0.00        0.00        0.00   117664.47        0.00       22.32        0.00      0.00     34.67      0.00    582.22      0.00      0.00      0.00     -0.0787
 379 TERRAR01.SGX       379 SG        0.00   118234.42        0.00        0.00        0.00        0.00   117664.47        0.00       22.32        0.00      0.00     34.67      0.00    582.22      0.00      0.00      0.00     -0.0787
 380 TERRAR01.SGX       380 SG        0.00   118234.42        0.00        0.00        0.00        0.00   117664.47        0.00       22.32        0.00      0.00     34.67      0.00    582.22      0.00      0.00      0.00     -0.0787
 381 TERRAR01.SGX       381 SG        0.00   118234.42        0.00        0.00        0.00        0.00   117664.47        0.00       22.32        0.00      0.00     34.67      0.00    582.22      0.00      0.00      0.00     -0.0787
 382 TERRAR01.SGX       382 SG        0.00   118234.42        0.00        0.00        0.00        0.00   117664.47        0.00       22.32        0.00      0.00     34.67      0.00    582.22      0.00      0.00      0.00     -0.0787
 383 TERRAR01.SGX       383 SG        0.00   118234.42        0.00        0.00        0.00        0.00   117664.47        0.00       22.32        0.00      0.00     34.67      0.00    582.22      0.00      0.00      0.00     -0.0787
 384 TERRAR01.SGX       384 SG        0.00   118234.42        0.00        0.00        0.00        0.00   117664.47        0.00       22.32        0.00      0.00     34.67      0.00    582.22      0.00      0.00      0.00     -0.0787
 385 TERRAR01.SGX       385 SG        0.00   118234.42        0.00        0.00        0.00        0.00   117664.47        0.00       22.32        0.00      0.00     34.67      0.00    582.22      0.00      0.00      0.00     -0.0787
 386 TERRAR01.SGX       386 SG        0.00   118234.42        0.00        0.00        0.00        0.00   117664.47        0.00       22.32        0.00      0.00     34.67      0.00    582.22      0.00      0.00      0.00     -0.0787
 387 TERRAR01.SGX       387 SG        0.00   118234.42        0.00        0.00        0.00        0.00   117664.47        0.00       22.32        0.00      0.00     34.67      0.00    582.22      0.00      0.00      0.00     -0.0787
 388 TERRAR01.SGX       388 SG        0.00   118234.42        0.00        0.00        0.00        0.00   117664.47        0.00       22.32        0.00      0.00     34.67      0.00    582.22      0.00      0.00      0.00     -0.0787
 389 TERRAR01.SGX       389 SG        0.00   118234.42        0.00        0.00        0.00        0.00   117664.47        0.00       22.32        0.00      0.00     34.67      0.00    582.22      0.00      0.00      0.00     -0.0787
 390 TERRAR01.SGX       390 SG        0.00   118234.42        0.00        0.00        0.00        0.00   117664.47        0.00       22.32        0.00      0.00     34.67      0.00    582.22      0.00      0.00      0.00     -0.0787
 391 TERRAR01.SGX       391 SG        0.00   118234.42        0.00        0.00        0.00        0.00   117664.47        0.00       22.32        0.00      0.00     34.67      0.00    582.22      0.00      0.00      0.00     -0.0787
 392 TERRAR01.SGX       392 SG        0.00   118234.42        0.00        0.00        0.00        0.00   117664.47        0.00       22.32        0.00      0.00     34.67      0.00    582.22      0.00      0.00      0.00     -0.0787
 393 TERRAR01.SGX       393 SG        0.00   118234.42        0.00        0.00        0.00        0.00   117664.47        0.00       22.32        0.00      0.00     34.67      0.00    582.22      0.00      0.00      0.00     -0.0787
 394 TERRAR01.SGX       394 SG        0.00   118234.42        0.00        0.00        0.00        0.00   117664.47        0.00       22.32        0.00      0.00     34.67      0.00    582.22      0.00      0.00      0.00     -0.0787
 395 TERRAR01.SGX       395 SG        0.00   118234.42        0.00        0.00        0.00        0.00   117664.47        0.00       22.32        0.00      0.00     34.67      0.00    582.22      0.00      0.00      0.00     -0.0787
 396 TERRAR01.SGX       396 SG        0.00   118234.42        0.00        0.00        0.00        0.00   117664.47        0.00       22.32        0.00      0.00     34.67      0.00    582.22      0.00      0.00      0.00     -0.0787
 397 TERRAR01.SGX       397 SG        0.00   118234.42        0.00        0.00        0.00        0.00   117664.47        0.00       22.32        0.00      0.00     34.67      0.00    582.22      0.00      0.00      0.00     -0.0787
 398 TERRAR01.SGX       398 SG        0.00   118234.42        0.00        0.00        0.00        0.00   117664.47        0.00       22.32        0.00      0.00     34.67      0.00    582.22      0.00      0.00      0.00     -0.0787
 399 TERRAR01.SGX       399 SG        0.00   118234.42        0.00        0.00        0.00        0.00   117664.47        0.00       22.32        0.00      0.00     34.67      0.00    582.22      0.00      0.00      0.00     -0.0787
 400 TERRAR01.SGX       400 SG        0.00   118234.42        0.00        0.00        0.00        0.00   117664.47        0.00       22.32        0.00      0.00     34.67      0.00    582.22      0.00      0.00      0.00     -0.0787
