*Soil Carbon Balance

*DSSAT Cropping System Model Ver. 4.8.0.027 -develop  JUN 30, 2022 07:20:22

*RUN   1        : TERRAREF-----S4_808       SGCER048 TERRAR01    1
 MODEL          : SGCER048 - Sorghum
 EXPERIMENT     : TERRAR01 SG
 DATA PATH      :
 TREATMENT  1   : TERRAREF-----S4_808       SGCER048
  

!                                                 Initial               Final
!                                                Year/DOY            Year/DOY
!                                                2018-079            2018-079
! SOIL C BALANCE                                 --------- kg[C]/ha ---------
!  SOIL & SURFACE ORGANIC C
!   Soil Organic C                              118234.42           117664.47
!   Surface Organic C                                0.00                0.00
!   Soil Litter C                                    0.00               22.32
!   Surface Litter C                                 0.00                0.00
!   Soil methane C stored                            0.00                0.00
!                                                --------            --------
!   Total C in Soil and Surface Layers          118234.42           117686.79
!  ADDITIONS AND REMOVALS:
!   C in Harvest Residues from Previous              0.00
!   C from Organic Applications                      0.00
!   C in returned senesced material                 34.67
!   CO2-C emitted                                  582.22
!   CH4-C emitted                                    0.00
!   CH4-C leached                                    0.00
!   CH4-C plant uptake                               0.00
!                                                --------            --------
! TOTAL C BALANCE                               118269.09           118269.01
!   Balance                                                            -0.078

*DSSAT Cropping System Model Ver. 4.8.0.027 -develop  JUN 30, 2022 07:20:22

*RUN   2        : TERRAREF-----S4_816       SGCER048 TERRAR01    2
 MODEL          : SGCER048 - Sorghum
 EXPERIMENT     : TERRAR01 SG
 DATA PATH      :
 TREATMENT  2   : TERRAREF-----S4_816       SGCER048
  

!                                                 Initial               Final
!                                                Year/DOY            Year/DOY
!                                                2018-079            2018-079
! SOIL C BALANCE                                 --------- kg[C]/ha ---------
!  SOIL & SURFACE ORGANIC C
!   Soil Organic C                              118234.42           117664.47
!   Surface Organic C                                0.00                0.00
!   Soil Litter C                                    0.00               22.32
!   Surface Litter C                                 0.00                0.00
!   Soil methane C stored                            0.00                0.00
!                                                --------            --------
!   Total C in Soil and Surface Layers          118234.42           117686.79
!  ADDITIONS AND REMOVALS:
!   C in Harvest Residues from Previous              0.00
!   C from Organic Applications                      0.00
!   C in returned senesced material                 34.67
!   CO2-C emitted                                  582.22
!   CH4-C emitted                                    0.00
!   CH4-C leached                                    0.00
!   CH4-C plant uptake                               0.00
!                                                --------            --------
! TOTAL C BALANCE                               118269.09           118269.01
!   Balance                                                            -0.078

*DSSAT Cropping System Model Ver. 4.8.0.027 -develop  JUN 30, 2022 07:20:22

*RUN   3        : TERRAREF-----S4_824       SGCER048 TERRAR01    3
 MODEL          : SGCER048 - Sorghum
 EXPERIMENT     : TERRAR01 SG
 DATA PATH      :
 TREATMENT  3   : TERRAREF-----S4_824       SGCER048
  

!                                                 Initial               Final
!                                                Year/DOY            Year/DOY
!                                                2018-079            2018-079
! SOIL C BALANCE                                 --------- kg[C]/ha ---------
!  SOIL & SURFACE ORGANIC C
!   Soil Organic C                              118234.42           117664.47
!   Surface Organic C                                0.00                0.00
!   Soil Litter C                                    0.00               22.32
!   Surface Litter C                                 0.00                0.00
!   Soil methane C stored                            0.00                0.00
!                                                --------            --------
!   Total C in Soil and Surface Layers          118234.42           117686.79
!  ADDITIONS AND REMOVALS:
!   C in Harvest Residues from Previous              0.00
!   C from Organic Applications                      0.00
!   C in returned senesced material                 34.67
!   CO2-C emitted                                  582.22
!   CH4-C emitted                                    0.00
!   CH4-C leached                                    0.00
!   CH4-C plant uptake                               0.00
!                                                --------            --------
! TOTAL C BALANCE                               118269.09           118269.01
!   Balance                                                            -0.078

*DSSAT Cropping System Model Ver. 4.8.0.027 -develop  JUN 30, 2022 07:20:22

*RUN   4        : TERRAREF-----S4_832       SGCER048 TERRAR01    4
 MODEL          : SGCER048 - Sorghum
 EXPERIMENT     : TERRAR01 SG
 DATA PATH      :
 TREATMENT  4   : TERRAREF-----S4_832       SGCER048
  

!                                                 Initial               Final
!                                                Year/DOY            Year/DOY
!                                                2018-079            2018-079
! SOIL C BALANCE                                 --------- kg[C]/ha ---------
!  SOIL & SURFACE ORGANIC C
!   Soil Organic C                              118234.42           117664.47
!   Surface Organic C                                0.00                0.00
!   Soil Litter C                                    0.00               22.32
!   Surface Litter C                                 0.00                0.00
!   Soil methane C stored                            0.00                0.00
!                                                --------            --------
!   Total C in Soil and Surface Layers          118234.42           117686.79
!  ADDITIONS AND REMOVALS:
!   C in Harvest Residues from Previous              0.00
!   C from Organic Applications                      0.00
!   C in returned senesced material                 34.67
!   CO2-C emitted                                  582.22
!   CH4-C emitted                                    0.00
!   CH4-C leached                                    0.00
!   CH4-C plant uptake                               0.00
!                                                --------            --------
! TOTAL C BALANCE                               118269.09           118269.01
!   Balance                                                            -0.078

*DSSAT Cropping System Model Ver. 4.8.0.027 -develop  JUN 30, 2022 07:20:22

*RUN   5        : TERRAREF-----S4_840       SGCER048 TERRAR01    5
 MODEL          : SGCER048 - Sorghum
 EXPERIMENT     : TERRAR01 SG
 DATA PATH      :
 TREATMENT  5   : TERRAREF-----S4_840       SGCER048
  

!                                                 Initial               Final
!                                                Year/DOY            Year/DOY
!                                                2018-079            2018-079
! SOIL C BALANCE                                 --------- kg[C]/ha ---------
!  SOIL & SURFACE ORGANIC C
!   Soil Organic C                              118234.42           117664.47
!   Surface Organic C                                0.00                0.00
!   Soil Litter C                                    0.00               22.32
!   Surface Litter C                                 0.00                0.00
!   Soil methane C stored                            0.00                0.00
!                                                --------            --------
!   Total C in Soil and Surface Layers          118234.42           117686.79
!  ADDITIONS AND REMOVALS:
!   C in Harvest Residues from Previous              0.00
!   C from Organic Applications                      0.00
!   C in returned senesced material                 34.67
!   CO2-C emitted                                  582.22
!   CH4-C emitted                                    0.00
!   CH4-C leached                                    0.00
!   CH4-C plant uptake                               0.00
!                                                --------            --------
! TOTAL C BALANCE                               118269.09           118269.01
!   Balance                                                            -0.078

*DSSAT Cropping System Model Ver. 4.8.0.027 -develop  JUN 30, 2022 07:20:22

*RUN   6        : TERRAREF-----S4_848       SGCER048 TERRAR01    6
 MODEL          : SGCER048 - Sorghum
 EXPERIMENT     : TERRAR01 SG
 DATA PATH      :
 TREATMENT  6   : TERRAREF-----S4_848       SGCER048
  

!                                                 Initial               Final
!                                                Year/DOY            Year/DOY
!                                                2018-079            2018-079
! SOIL C BALANCE                                 --------- kg[C]/ha ---------
!  SOIL & SURFACE ORGANIC C
!   Soil Organic C                              118234.42           117664.47
!   Surface Organic C                                0.00                0.00
!   Soil Litter C                                    0.00               22.32
!   Surface Litter C                                 0.00                0.00
!   Soil methane C stored                            0.00                0.00
!                                                --------            --------
!   Total C in Soil and Surface Layers          118234.42           117686.79
!  ADDITIONS AND REMOVALS:
!   C in Harvest Residues from Previous              0.00
!   C from Organic Applications                      0.00
!   C in returned senesced material                 34.67
!   CO2-C emitted                                  582.22
!   CH4-C emitted                                    0.00
!   CH4-C leached                                    0.00
!   CH4-C plant uptake                               0.00
!                                                --------            --------
! TOTAL C BALANCE                               118269.09           118269.01
!   Balance                                                            -0.078

*DSSAT Cropping System Model Ver. 4.8.0.027 -develop  JUN 30, 2022 07:20:22

*RUN   7        : TERRAREF-----S4_856       SGCER048 TERRAR01    7
 MODEL          : SGCER048 - Sorghum
 EXPERIMENT     : TERRAR01 SG
 DATA PATH      :
 TREATMENT  7   : TERRAREF-----S4_856       SGCER048
  

!                                                 Initial               Final
!                                                Year/DOY            Year/DOY
!                                                2018-079            2018-079
! SOIL C BALANCE                                 --------- kg[C]/ha ---------
!  SOIL & SURFACE ORGANIC C
!   Soil Organic C                              118234.42           117664.47
!   Surface Organic C                                0.00                0.00
!   Soil Litter C                                    0.00               22.32
!   Surface Litter C                                 0.00                0.00
!   Soil methane C stored                            0.00                0.00
!                                                --------            --------
!   Total C in Soil and Surface Layers          118234.42           117686.79
!  ADDITIONS AND REMOVALS:
!   C in Harvest Residues from Previous              0.00
!   C from Organic Applications                      0.00
!   C in returned senesced material                 34.67
!   CO2-C emitted                                  582.22
!   CH4-C emitted                                    0.00
!   CH4-C leached                                    0.00
!   CH4-C plant uptake                               0.00
!                                                --------            --------
! TOTAL C BALANCE                               118269.09           118269.01
!   Balance                                                            -0.078

*DSSAT Cropping System Model Ver. 4.8.0.027 -develop  JUN 30, 2022 07:20:23

*RUN   8        : TERRAREF-----S4_864       SGCER048 TERRAR01    8
 MODEL          : SGCER048 - Sorghum
 EXPERIMENT     : TERRAR01 SG
 DATA PATH      :
 TREATMENT  8   : TERRAREF-----S4_864       SGCER048
  

!                                                 Initial               Final
!                                                Year/DOY            Year/DOY
!                                                2018-079            2018-079
! SOIL C BALANCE                                 --------- kg[C]/ha ---------
!  SOIL & SURFACE ORGANIC C
!   Soil Organic C                              118234.42           117664.47
!   Surface Organic C                                0.00                0.00
!   Soil Litter C                                    0.00               22.32
!   Surface Litter C                                 0.00                0.00
!   Soil methane C stored                            0.00                0.00
!                                                --------            --------
!   Total C in Soil and Surface Layers          118234.42           117686.79
!  ADDITIONS AND REMOVALS:
!   C in Harvest Residues from Previous              0.00
!   C from Organic Applications                      0.00
!   C in returned senesced material                 34.67
!   CO2-C emitted                                  582.22
!   CH4-C emitted                                    0.00
!   CH4-C leached                                    0.00
!   CH4-C plant uptake                               0.00
!                                                --------            --------
! TOTAL C BALANCE                               118269.09           118269.01
!   Balance                                                            -0.078

*DSSAT Cropping System Model Ver. 4.8.0.027 -develop  JUN 30, 2022 07:20:23

*RUN   9        : TERRAREF-----S4_872       SGCER048 TERRAR01    9
 MODEL          : SGCER048 - Sorghum
 EXPERIMENT     : TERRAR01 SG
 DATA PATH      :
 TREATMENT  9   : TERRAREF-----S4_872       SGCER048
  

!                                                 Initial               Final
!                                                Year/DOY            Year/DOY
!                                                2018-079            2018-079
! SOIL C BALANCE                                 --------- kg[C]/ha ---------
!  SOIL & SURFACE ORGANIC C
!   Soil Organic C                              118234.42           117664.47
!   Surface Organic C                                0.00                0.00
!   Soil Litter C                                    0.00               22.32
!   Surface Litter C                                 0.00                0.00
!   Soil methane C stored                            0.00                0.00
!                                                --------            --------
!   Total C in Soil and Surface Layers          118234.42           117686.79
!  ADDITIONS AND REMOVALS:
!   C in Harvest Residues from Previous              0.00
!   C from Organic Applications                      0.00
!   C in returned senesced material                 34.67
!   CO2-C emitted                                  582.22
!   CH4-C emitted                                    0.00
!   CH4-C leached                                    0.00
!   CH4-C plant uptake                               0.00
!                                                --------            --------
! TOTAL C BALANCE                               118269.09           118269.01
!   Balance                                                            -0.078

*DSSAT Cropping System Model Ver. 4.8.0.027 -develop  JUN 30, 2022 07:20:23

*RUN  10        : TERRAREF-----S4_880       SGCER048 TERRAR01   10
 MODEL          : SGCER048 - Sorghum
 EXPERIMENT     : TERRAR01 SG
 DATA PATH      :
 TREATMENT 10   : TERRAREF-----S4_880       SGCER048
  

!                                                 Initial               Final
!                                                Year/DOY            Year/DOY
!                                                2018-079            2018-079
! SOIL C BALANCE                                 --------- kg[C]/ha ---------
!  SOIL & SURFACE ORGANIC C
!   Soil Organic C                              118234.42           117664.47
!   Surface Organic C                                0.00                0.00
!   Soil Litter C                                    0.00               22.32
!   Surface Litter C                                 0.00                0.00
!   Soil methane C stored                            0.00                0.00
!                                                --------            --------
!   Total C in Soil and Surface Layers          118234.42           117686.79
!  ADDITIONS AND REMOVALS:
!   C in Harvest Residues from Previous              0.00
!   C from Organic Applications                      0.00
!   C in returned senesced material                 34.67
!   CO2-C emitted                                  582.22
!   CH4-C emitted                                    0.00
!   CH4-C leached                                    0.00
!   CH4-C plant uptake                               0.00
!                                                --------            --------
! TOTAL C BALANCE                               118269.09           118269.01
!   Balance                                                            -0.078

*DSSAT Cropping System Model Ver. 4.8.0.027 -develop  JUN 30, 2022 07:20:23

*RUN  11        : TERRAREF-----S4_888       SGCER048 TERRAR01   11
 MODEL          : SGCER048 - Sorghum
 EXPERIMENT     : TERRAR01 SG
 DATA PATH      :
 TREATMENT 11   : TERRAREF-----S4_888       SGCER048
  

!                                                 Initial               Final
!                                                Year/DOY            Year/DOY
!                                                2018-079            2018-079
! SOIL C BALANCE                                 --------- kg[C]/ha ---------
!  SOIL & SURFACE ORGANIC C
!   Soil Organic C                              118234.42           117664.47
!   Surface Organic C                                0.00                0.00
!   Soil Litter C                                    0.00               22.32
!   Surface Litter C                                 0.00                0.00
!   Soil methane C stored                            0.00                0.00
!                                                --------            --------
!   Total C in Soil and Surface Layers          118234.42           117686.79
!  ADDITIONS AND REMOVALS:
!   C in Harvest Residues from Previous              0.00
!   C from Organic Applications                      0.00
!   C in returned senesced material                 34.67
!   CO2-C emitted                                  582.22
!   CH4-C emitted                                    0.00
!   CH4-C leached                                    0.00
!   CH4-C plant uptake                               0.00
!                                                --------            --------
! TOTAL C BALANCE                               118269.09           118269.01
!   Balance                                                            -0.078

*DSSAT Cropping System Model Ver. 4.8.0.027 -develop  JUN 30, 2022 07:20:23

*RUN  12        : TERRAREF-----S4_896       SGCER048 TERRAR01   12
 MODEL          : SGCER048 - Sorghum
 EXPERIMENT     : TERRAR01 SG
 DATA PATH      :
 TREATMENT 12   : TERRAREF-----S4_896       SGCER048
  

!                                                 Initial               Final
!                                                Year/DOY            Year/DOY
!                                                2018-079            2018-079
! SOIL C BALANCE                                 --------- kg[C]/ha ---------
!  SOIL & SURFACE ORGANIC C
!   Soil Organic C                              118234.42           117664.47
!   Surface Organic C                                0.00                0.00
!   Soil Litter C                                    0.00               22.32
!   Surface Litter C                                 0.00                0.00
!   Soil methane C stored                            0.00                0.00
!                                                --------            --------
!   Total C in Soil and Surface Layers          118234.42           117686.79
!  ADDITIONS AND REMOVALS:
!   C in Harvest Residues from Previous              0.00
!   C from Organic Applications                      0.00
!   C in returned senesced material                 34.67
!   CO2-C emitted                                  582.22
!   CH4-C emitted                                    0.00
!   CH4-C leached                                    0.00
!   CH4-C plant uptake                               0.00
!                                                --------            --------
! TOTAL C BALANCE                               118269.09           118269.01
!   Balance                                                            -0.078

*DSSAT Cropping System Model Ver. 4.8.0.027 -develop  JUN 30, 2022 07:20:23

*RUN  13        : TERRAREF-----S4_904       SGCER048 TERRAR01   13
 MODEL          : SGCER048 - Sorghum
 EXPERIMENT     : TERRAR01 SG
 DATA PATH      :
 TREATMENT 13   : TERRAREF-----S4_904       SGCER048
  

!                                                 Initial               Final
!                                                Year/DOY            Year/DOY
!                                                2018-079            2018-079
! SOIL C BALANCE                                 --------- kg[C]/ha ---------
!  SOIL & SURFACE ORGANIC C
!   Soil Organic C                              118234.42           117664.47
!   Surface Organic C                                0.00                0.00
!   Soil Litter C                                    0.00               22.32
!   Surface Litter C                                 0.00                0.00
!   Soil methane C stored                            0.00                0.00
!                                                --------            --------
!   Total C in Soil and Surface Layers          118234.42           117686.79
!  ADDITIONS AND REMOVALS:
!   C in Harvest Residues from Previous              0.00
!   C from Organic Applications                      0.00
!   C in returned senesced material                 34.67
!   CO2-C emitted                                  582.22
!   CH4-C emitted                                    0.00
!   CH4-C leached                                    0.00
!   CH4-C plant uptake                               0.00
!                                                --------            --------
! TOTAL C BALANCE                               118269.09           118269.01
!   Balance                                                            -0.078

*DSSAT Cropping System Model Ver. 4.8.0.027 -develop  JUN 30, 2022 07:20:23

*RUN  14        : TERRAREF-----S4_912       SGCER048 TERRAR01   14
 MODEL          : SGCER048 - Sorghum
 EXPERIMENT     : TERRAR01 SG
 DATA PATH      :
 TREATMENT 14   : TERRAREF-----S4_912       SGCER048
  

!                                                 Initial               Final
!                                                Year/DOY            Year/DOY
!                                                2018-079            2018-079
! SOIL C BALANCE                                 --------- kg[C]/ha ---------
!  SOIL & SURFACE ORGANIC C
!   Soil Organic C                              118234.42           117664.47
!   Surface Organic C                                0.00                0.00
!   Soil Litter C                                    0.00               22.32
!   Surface Litter C                                 0.00                0.00
!   Soil methane C stored                            0.00                0.00
!                                                --------            --------
!   Total C in Soil and Surface Layers          118234.42           117686.79
!  ADDITIONS AND REMOVALS:
!   C in Harvest Residues from Previous              0.00
!   C from Organic Applications                      0.00
!   C in returned senesced material                 34.67
!   CO2-C emitted                                  582.22
!   CH4-C emitted                                    0.00
!   CH4-C leached                                    0.00
!   CH4-C plant uptake                               0.00
!                                                --------            --------
! TOTAL C BALANCE                               118269.09           118269.01
!   Balance                                                            -0.078

*DSSAT Cropping System Model Ver. 4.8.0.027 -develop  JUN 30, 2022 07:20:23

*RUN  15        : TERRAREF-----S4_920       SGCER048 TERRAR01   15
 MODEL          : SGCER048 - Sorghum
 EXPERIMENT     : TERRAR01 SG
 DATA PATH      :
 TREATMENT 15   : TERRAREF-----S4_920       SGCER048
  

!                                                 Initial               Final
!                                                Year/DOY            Year/DOY
!                                                2018-079            2018-079
! SOIL C BALANCE                                 --------- kg[C]/ha ---------
!  SOIL & SURFACE ORGANIC C
!   Soil Organic C                              118234.42           117664.47
!   Surface Organic C                                0.00                0.00
!   Soil Litter C                                    0.00               22.32
!   Surface Litter C                                 0.00                0.00
!   Soil methane C stored                            0.00                0.00
!                                                --------            --------
!   Total C in Soil and Surface Layers          118234.42           117686.79
!  ADDITIONS AND REMOVALS:
!   C in Harvest Residues from Previous              0.00
!   C from Organic Applications                      0.00
!   C in returned senesced material                 34.67
!   CO2-C emitted                                  582.22
!   CH4-C emitted                                    0.00
!   CH4-C leached                                    0.00
!   CH4-C plant uptake                               0.00
!                                                --------            --------
! TOTAL C BALANCE                               118269.09           118269.01
!   Balance                                                            -0.078

*DSSAT Cropping System Model Ver. 4.8.0.027 -develop  JUN 30, 2022 07:20:23

*RUN  16        : TERRAREF-----S4_928       SGCER048 TERRAR01   16
 MODEL          : SGCER048 - Sorghum
 EXPERIMENT     : TERRAR01 SG
 DATA PATH      :
 TREATMENT 16   : TERRAREF-----S4_928       SGCER048
  

!                                                 Initial               Final
!                                                Year/DOY            Year/DOY
!                                                2018-079            2018-079
! SOIL C BALANCE                                 --------- kg[C]/ha ---------
!  SOIL & SURFACE ORGANIC C
!   Soil Organic C                              118234.42           117664.47
!   Surface Organic C                                0.00                0.00
!   Soil Litter C                                    0.00               22.32
!   Surface Litter C                                 0.00                0.00
!   Soil methane C stored                            0.00                0.00
!                                                --------            --------
!   Total C in Soil and Surface Layers          118234.42           117686.79
!  ADDITIONS AND REMOVALS:
!   C in Harvest Residues from Previous              0.00
!   C from Organic Applications                      0.00
!   C in returned senesced material                 34.67
!   CO2-C emitted                                  582.22
!   CH4-C emitted                                    0.00
!   CH4-C leached                                    0.00
!   CH4-C plant uptake                               0.00
!                                                --------            --------
! TOTAL C BALANCE                               118269.09           118269.01
!   Balance                                                            -0.078

*DSSAT Cropping System Model Ver. 4.8.0.027 -develop  JUN 30, 2022 07:20:24

*RUN  17        : TERRAREF-----S4_936       SGCER048 TERRAR01   17
 MODEL          : SGCER048 - Sorghum
 EXPERIMENT     : TERRAR01 SG
 DATA PATH      :
 TREATMENT 17   : TERRAREF-----S4_936       SGCER048
  

!                                                 Initial               Final
!                                                Year/DOY            Year/DOY
!                                                2018-079            2018-079
! SOIL C BALANCE                                 --------- kg[C]/ha ---------
!  SOIL & SURFACE ORGANIC C
!   Soil Organic C                              118234.42           117664.47
!   Surface Organic C                                0.00                0.00
!   Soil Litter C                                    0.00               22.32
!   Surface Litter C                                 0.00                0.00
!   Soil methane C stored                            0.00                0.00
!                                                --------            --------
!   Total C in Soil and Surface Layers          118234.42           117686.79
!  ADDITIONS AND REMOVALS:
!   C in Harvest Residues from Previous              0.00
!   C from Organic Applications                      0.00
!   C in returned senesced material                 34.67
!   CO2-C emitted                                  582.22
!   CH4-C emitted                                    0.00
!   CH4-C leached                                    0.00
!   CH4-C plant uptake                               0.00
!                                                --------            --------
! TOTAL C BALANCE                               118269.09           118269.01
!   Balance                                                            -0.078

*DSSAT Cropping System Model Ver. 4.8.0.027 -develop  JUN 30, 2022 07:20:24

*RUN  18        : TERRAREF-----S4_944       SGCER048 TERRAR01   18
 MODEL          : SGCER048 - Sorghum
 EXPERIMENT     : TERRAR01 SG
 DATA PATH      :
 TREATMENT 18   : TERRAREF-----S4_944       SGCER048
  

!                                                 Initial               Final
!                                                Year/DOY            Year/DOY
!                                                2018-079            2018-079
! SOIL C BALANCE                                 --------- kg[C]/ha ---------
!  SOIL & SURFACE ORGANIC C
!   Soil Organic C                              118234.42           117664.47
!   Surface Organic C                                0.00                0.00
!   Soil Litter C                                    0.00               22.32
!   Surface Litter C                                 0.00                0.00
!   Soil methane C stored                            0.00                0.00
!                                                --------            --------
!   Total C in Soil and Surface Layers          118234.42           117686.79
!  ADDITIONS AND REMOVALS:
!   C in Harvest Residues from Previous              0.00
!   C from Organic Applications                      0.00
!   C in returned senesced material                 34.67
!   CO2-C emitted                                  582.22
!   CH4-C emitted                                    0.00
!   CH4-C leached                                    0.00
!   CH4-C plant uptake                               0.00
!                                                --------            --------
! TOTAL C BALANCE                               118269.09           118269.01
!   Balance                                                            -0.078

*DSSAT Cropping System Model Ver. 4.8.0.027 -develop  JUN 30, 2022 07:20:24

*RUN  19        : TERRAREF-----S4_952       SGCER048 TERRAR01   19
 MODEL          : SGCER048 - Sorghum
 EXPERIMENT     : TERRAR01 SG
 DATA PATH      :
 TREATMENT 19   : TERRAREF-----S4_952       SGCER048
  

!                                                 Initial               Final
!                                                Year/DOY            Year/DOY
!                                                2018-079            2018-079
! SOIL C BALANCE                                 --------- kg[C]/ha ---------
!  SOIL & SURFACE ORGANIC C
!   Soil Organic C                              118234.42           117664.47
!   Surface Organic C                                0.00                0.00
!   Soil Litter C                                    0.00               22.32
!   Surface Litter C                                 0.00                0.00
!   Soil methane C stored                            0.00                0.00
!                                                --------            --------
!   Total C in Soil and Surface Layers          118234.42           117686.79
!  ADDITIONS AND REMOVALS:
!   C in Harvest Residues from Previous              0.00
!   C from Organic Applications                      0.00
!   C in returned senesced material                 34.67
!   CO2-C emitted                                  582.22
!   CH4-C emitted                                    0.00
!   CH4-C leached                                    0.00
!   CH4-C plant uptake                               0.00
!                                                --------            --------
! TOTAL C BALANCE                               118269.09           118269.01
!   Balance                                                            -0.078

*DSSAT Cropping System Model Ver. 4.8.0.027 -develop  JUN 30, 2022 07:20:24

*RUN  20        : TERRAREF-----S4_960       SGCER048 TERRAR01   20
 MODEL          : SGCER048 - Sorghum
 EXPERIMENT     : TERRAR01 SG
 DATA PATH      :
 TREATMENT 20   : TERRAREF-----S4_960       SGCER048
  

!                                                 Initial               Final
!                                                Year/DOY            Year/DOY
!                                                2018-079            2018-079
! SOIL C BALANCE                                 --------- kg[C]/ha ---------
!  SOIL & SURFACE ORGANIC C
!   Soil Organic C                              118234.42           117664.47
!   Surface Organic C                                0.00                0.00
!   Soil Litter C                                    0.00               22.32
!   Surface Litter C                                 0.00                0.00
!   Soil methane C stored                            0.00                0.00
!                                                --------            --------
!   Total C in Soil and Surface Layers          118234.42           117686.79
!  ADDITIONS AND REMOVALS:
!   C in Harvest Residues from Previous              0.00
!   C from Organic Applications                      0.00
!   C in returned senesced material                 34.67
!   CO2-C emitted                                  582.22
!   CH4-C emitted                                    0.00
!   CH4-C leached                                    0.00
!   CH4-C plant uptake                               0.00
!                                                --------            --------
! TOTAL C BALANCE                               118269.09           118269.01
!   Balance                                                            -0.078

*DSSAT Cropping System Model Ver. 4.8.0.027 -develop  JUN 30, 2022 07:20:24

*RUN  21        : TERRAREF-----S4_968       SGCER048 TERRAR01   21
 MODEL          : SGCER048 - Sorghum
 EXPERIMENT     : TERRAR01 SG
 DATA PATH      :
 TREATMENT 21   : TERRAREF-----S4_968       SGCER048
  

!                                                 Initial               Final
!                                                Year/DOY            Year/DOY
!                                                2018-079            2018-079
! SOIL C BALANCE                                 --------- kg[C]/ha ---------
!  SOIL & SURFACE ORGANIC C
!   Soil Organic C                              118234.42           117664.47
!   Surface Organic C                                0.00                0.00
!   Soil Litter C                                    0.00               22.32
!   Surface Litter C                                 0.00                0.00
!   Soil methane C stored                            0.00                0.00
!                                                --------            --------
!   Total C in Soil and Surface Layers          118234.42           117686.79
!  ADDITIONS AND REMOVALS:
!   C in Harvest Residues from Previous              0.00
!   C from Organic Applications                      0.00
!   C in returned senesced material                 34.67
!   CO2-C emitted                                  582.22
!   CH4-C emitted                                    0.00
!   CH4-C leached                                    0.00
!   CH4-C plant uptake                               0.00
!                                                --------            --------
! TOTAL C BALANCE                               118269.09           118269.01
!   Balance                                                            -0.078

*DSSAT Cropping System Model Ver. 4.8.0.027 -develop  JUN 30, 2022 07:20:24

*RUN  22        : TERRAREF-----S4_976       SGCER048 TERRAR01   22
 MODEL          : SGCER048 - Sorghum
 EXPERIMENT     : TERRAR01 SG
 DATA PATH      :
 TREATMENT 22   : TERRAREF-----S4_976       SGCER048
  

!                                                 Initial               Final
!                                                Year/DOY            Year/DOY
!                                                2018-079            2018-079
! SOIL C BALANCE                                 --------- kg[C]/ha ---------
!  SOIL & SURFACE ORGANIC C
!   Soil Organic C                              118234.42           117664.47
!   Surface Organic C                                0.00                0.00
!   Soil Litter C                                    0.00               22.32
!   Surface Litter C                                 0.00                0.00
!   Soil methane C stored                            0.00                0.00
!                                                --------            --------
!   Total C in Soil and Surface Layers          118234.42           117686.79
!  ADDITIONS AND REMOVALS:
!   C in Harvest Residues from Previous              0.00
!   C from Organic Applications                      0.00
!   C in returned senesced material                 34.67
!   CO2-C emitted                                  582.22
!   CH4-C emitted                                    0.00
!   CH4-C leached                                    0.00
!   CH4-C plant uptake                               0.00
!                                                --------            --------
! TOTAL C BALANCE                               118269.09           118269.01
!   Balance                                                            -0.078

*DSSAT Cropping System Model Ver. 4.8.0.027 -develop  JUN 30, 2022 07:20:24

*RUN  23        : TERRAREF-----S4_984       SGCER048 TERRAR01   23
 MODEL          : SGCER048 - Sorghum
 EXPERIMENT     : TERRAR01 SG
 DATA PATH      :
 TREATMENT 23   : TERRAREF-----S4_984       SGCER048
  

!                                                 Initial               Final
!                                                Year/DOY            Year/DOY
!                                                2018-079            2018-079
! SOIL C BALANCE                                 --------- kg[C]/ha ---------
!  SOIL & SURFACE ORGANIC C
!   Soil Organic C                              118234.42           117664.47
!   Surface Organic C                                0.00                0.00
!   Soil Litter C                                    0.00               22.32
!   Surface Litter C                                 0.00                0.00
!   Soil methane C stored                            0.00                0.00
!                                                --------            --------
!   Total C in Soil and Surface Layers          118234.42           117686.79
!  ADDITIONS AND REMOVALS:
!   C in Harvest Residues from Previous              0.00
!   C from Organic Applications                      0.00
!   C in returned senesced material                 34.67
!   CO2-C emitted                                  582.22
!   CH4-C emitted                                    0.00
!   CH4-C leached                                    0.00
!   CH4-C plant uptake                               0.00
!                                                --------            --------
! TOTAL C BALANCE                               118269.09           118269.01
!   Balance                                                            -0.078

*DSSAT Cropping System Model Ver. 4.8.0.027 -develop  JUN 30, 2022 07:20:24

*RUN  24        : TERRAREF-----S4_992       SGCER048 TERRAR01   24
 MODEL          : SGCER048 - Sorghum
 EXPERIMENT     : TERRAR01 SG
 DATA PATH      :
 TREATMENT 24   : TERRAREF-----S4_992       SGCER048
  

!                                                 Initial               Final
!                                                Year/DOY            Year/DOY
!                                                2018-079            2018-079
! SOIL C BALANCE                                 --------- kg[C]/ha ---------
!  SOIL & SURFACE ORGANIC C
!   Soil Organic C                              118234.42           117664.47
!   Surface Organic C                                0.00                0.00
!   Soil Litter C                                    0.00               22.32
!   Surface Litter C                                 0.00                0.00
!   Soil methane C stored                            0.00                0.00
!                                                --------            --------
!   Total C in Soil and Surface Layers          118234.42           117686.79
!  ADDITIONS AND REMOVALS:
!   C in Harvest Residues from Previous              0.00
!   C from Organic Applications                      0.00
!   C in returned senesced material                 34.67
!   CO2-C emitted                                  582.22
!   CH4-C emitted                                    0.00
!   CH4-C leached                                    0.00
!   CH4-C plant uptake                               0.00
!                                                --------            --------
! TOTAL C BALANCE                               118269.09           118269.01
!   Balance                                                            -0.078

*DSSAT Cropping System Model Ver. 4.8.0.027 -develop  JUN 30, 2022 07:20:24

*RUN  25        : TERRAREF-----S4_1000      SGCER048 TERRAR01   25
 MODEL          : SGCER048 - Sorghum
 EXPERIMENT     : TERRAR01 SG
 DATA PATH      :
 TREATMENT 25   : TERRAREF-----S4_1000      SGCER048
  

!                                                 Initial               Final
!                                                Year/DOY            Year/DOY
!                                                2018-079            2018-079
! SOIL C BALANCE                                 --------- kg[C]/ha ---------
!  SOIL & SURFACE ORGANIC C
!   Soil Organic C                              118234.42           117664.47
!   Surface Organic C                                0.00                0.00
!   Soil Litter C                                    0.00               22.32
!   Surface Litter C                                 0.00                0.00
!   Soil methane C stored                            0.00                0.00
!                                                --------            --------
!   Total C in Soil and Surface Layers          118234.42           117686.79
!  ADDITIONS AND REMOVALS:
!   C in Harvest Residues from Previous              0.00
!   C from Organic Applications                      0.00
!   C in returned senesced material                 34.67
!   CO2-C emitted                                  582.22
!   CH4-C emitted                                    0.00
!   CH4-C leached                                    0.00
!   CH4-C plant uptake                               0.00
!                                                --------            --------
! TOTAL C BALANCE                               118269.09           118269.01
!   Balance                                                            -0.078

*DSSAT Cropping System Model Ver. 4.8.0.027 -develop  JUN 30, 2022 07:20:24

*RUN  26        : TERRAREF-----S4_1008      SGCER048 TERRAR01   26
 MODEL          : SGCER048 - Sorghum
 EXPERIMENT     : TERRAR01 SG
 DATA PATH      :
 TREATMENT 26   : TERRAREF-----S4_1008      SGCER048
  

!                                                 Initial               Final
!                                                Year/DOY            Year/DOY
!                                                2018-079            2018-079
! SOIL C BALANCE                                 --------- kg[C]/ha ---------
!  SOIL & SURFACE ORGANIC C
!   Soil Organic C                              118234.42           117664.47
!   Surface Organic C                                0.00                0.00
!   Soil Litter C                                    0.00               22.32
!   Surface Litter C                                 0.00                0.00
!   Soil methane C stored                            0.00                0.00
!                                                --------            --------
!   Total C in Soil and Surface Layers          118234.42           117686.79
!  ADDITIONS AND REMOVALS:
!   C in Harvest Residues from Previous              0.00
!   C from Organic Applications                      0.00
!   C in returned senesced material                 34.67
!   CO2-C emitted                                  582.22
!   CH4-C emitted                                    0.00
!   CH4-C leached                                    0.00
!   CH4-C plant uptake                               0.00
!                                                --------            --------
! TOTAL C BALANCE                               118269.09           118269.01
!   Balance                                                            -0.078

*DSSAT Cropping System Model Ver. 4.8.0.027 -develop  JUN 30, 2022 07:20:25

*RUN  27        : TERRAREF-----S4_1016      SGCER048 TERRAR01   27
 MODEL          : SGCER048 - Sorghum
 EXPERIMENT     : TERRAR01 SG
 DATA PATH      :
 TREATMENT 27   : TERRAREF-----S4_1016      SGCER048
  

!                                                 Initial               Final
!                                                Year/DOY            Year/DOY
!                                                2018-079            2018-079
! SOIL C BALANCE                                 --------- kg[C]/ha ---------
!  SOIL & SURFACE ORGANIC C
!   Soil Organic C                              118234.42           117664.47
!   Surface Organic C                                0.00                0.00
!   Soil Litter C                                    0.00               22.32
!   Surface Litter C                                 0.00                0.00
!   Soil methane C stored                            0.00                0.00
!                                                --------            --------
!   Total C in Soil and Surface Layers          118234.42           117686.79
!  ADDITIONS AND REMOVALS:
!   C in Harvest Residues from Previous              0.00
!   C from Organic Applications                      0.00
!   C in returned senesced material                 34.67
!   CO2-C emitted                                  582.22
!   CH4-C emitted                                    0.00
!   CH4-C leached                                    0.00
!   CH4-C plant uptake                               0.00
!                                                --------            --------
! TOTAL C BALANCE                               118269.09           118269.01
!   Balance                                                            -0.078

*DSSAT Cropping System Model Ver. 4.8.0.027 -develop  JUN 30, 2022 07:20:25

*RUN  28        : TERRAREF-----S4_1024      SGCER048 TERRAR01   28
 MODEL          : SGCER048 - Sorghum
 EXPERIMENT     : TERRAR01 SG
 DATA PATH      :
 TREATMENT 28   : TERRAREF-----S4_1024      SGCER048
  

!                                                 Initial               Final
!                                                Year/DOY            Year/DOY
!                                                2018-079            2018-079
! SOIL C BALANCE                                 --------- kg[C]/ha ---------
!  SOIL & SURFACE ORGANIC C
!   Soil Organic C                              118234.42           117664.47
!   Surface Organic C                                0.00                0.00
!   Soil Litter C                                    0.00               22.32
!   Surface Litter C                                 0.00                0.00
!   Soil methane C stored                            0.00                0.00
!                                                --------            --------
!   Total C in Soil and Surface Layers          118234.42           117686.79
!  ADDITIONS AND REMOVALS:
!   C in Harvest Residues from Previous              0.00
!   C from Organic Applications                      0.00
!   C in returned senesced material                 34.67
!   CO2-C emitted                                  582.22
!   CH4-C emitted                                    0.00
!   CH4-C leached                                    0.00
!   CH4-C plant uptake                               0.00
!                                                --------            --------
! TOTAL C BALANCE                               118269.09           118269.01
!   Balance                                                            -0.078

*DSSAT Cropping System Model Ver. 4.8.0.027 -develop  JUN 30, 2022 07:20:25

*RUN  29        : TERRAREF-----S4_1032      SGCER048 TERRAR01   29
 MODEL          : SGCER048 - Sorghum
 EXPERIMENT     : TERRAR01 SG
 DATA PATH      :
 TREATMENT 29   : TERRAREF-----S4_1032      SGCER048
  

!                                                 Initial               Final
!                                                Year/DOY            Year/DOY
!                                                2018-079            2018-079
! SOIL C BALANCE                                 --------- kg[C]/ha ---------
!  SOIL & SURFACE ORGANIC C
!   Soil Organic C                              118234.42           117664.47
!   Surface Organic C                                0.00                0.00
!   Soil Litter C                                    0.00               22.32
!   Surface Litter C                                 0.00                0.00
!   Soil methane C stored                            0.00                0.00
!                                                --------            --------
!   Total C in Soil and Surface Layers          118234.42           117686.79
!  ADDITIONS AND REMOVALS:
!   C in Harvest Residues from Previous              0.00
!   C from Organic Applications                      0.00
!   C in returned senesced material                 34.67
!   CO2-C emitted                                  582.22
!   CH4-C emitted                                    0.00
!   CH4-C leached                                    0.00
!   CH4-C plant uptake                               0.00
!                                                --------            --------
! TOTAL C BALANCE                               118269.09           118269.01
!   Balance                                                            -0.078

*DSSAT Cropping System Model Ver. 4.8.0.027 -develop  JUN 30, 2022 07:20:25

*RUN  30        : TERRAREF-----S4_1040      SGCER048 TERRAR01   30
 MODEL          : SGCER048 - Sorghum
 EXPERIMENT     : TERRAR01 SG
 DATA PATH      :
 TREATMENT 30   : TERRAREF-----S4_1040      SGCER048
  

!                                                 Initial               Final
!                                                Year/DOY            Year/DOY
!                                                2018-079            2018-079
! SOIL C BALANCE                                 --------- kg[C]/ha ---------
!  SOIL & SURFACE ORGANIC C
!   Soil Organic C                              118234.42           117664.47
!   Surface Organic C                                0.00                0.00
!   Soil Litter C                                    0.00               22.32
!   Surface Litter C                                 0.00                0.00
!   Soil methane C stored                            0.00                0.00
!                                                --------            --------
!   Total C in Soil and Surface Layers          118234.42           117686.79
!  ADDITIONS AND REMOVALS:
!   C in Harvest Residues from Previous              0.00
!   C from Organic Applications                      0.00
!   C in returned senesced material                 34.67
!   CO2-C emitted                                  582.22
!   CH4-C emitted                                    0.00
!   CH4-C leached                                    0.00
!   CH4-C plant uptake                               0.00
!                                                --------            --------
! TOTAL C BALANCE                               118269.09           118269.01
!   Balance                                                            -0.078

*DSSAT Cropping System Model Ver. 4.8.0.027 -develop  JUN 30, 2022 07:20:25

*RUN  31        : TERRAREF-----S4_1048      SGCER048 TERRAR01   31
 MODEL          : SGCER048 - Sorghum
 EXPERIMENT     : TERRAR01 SG
 DATA PATH      :
 TREATMENT 31   : TERRAREF-----S4_1048      SGCER048
  

!                                                 Initial               Final
!                                                Year/DOY            Year/DOY
!                                                2018-079            2018-079
! SOIL C BALANCE                                 --------- kg[C]/ha ---------
!  SOIL & SURFACE ORGANIC C
!   Soil Organic C                              118234.42           117664.47
!   Surface Organic C                                0.00                0.00
!   Soil Litter C                                    0.00               22.32
!   Surface Litter C                                 0.00                0.00
!   Soil methane C stored                            0.00                0.00
!                                                --------            --------
!   Total C in Soil and Surface Layers          118234.42           117686.79
!  ADDITIONS AND REMOVALS:
!   C in Harvest Residues from Previous              0.00
!   C from Organic Applications                      0.00
!   C in returned senesced material                 34.67
!   CO2-C emitted                                  582.22
!   CH4-C emitted                                    0.00
!   CH4-C leached                                    0.00
!   CH4-C plant uptake                               0.00
!                                                --------            --------
! TOTAL C BALANCE                               118269.09           118269.01
!   Balance                                                            -0.078

*DSSAT Cropping System Model Ver. 4.8.0.027 -develop  JUN 30, 2022 07:20:25

*RUN  32        : TERRAREF-----S4_1056      SGCER048 TERRAR01   32
 MODEL          : SGCER048 - Sorghum
 EXPERIMENT     : TERRAR01 SG
 DATA PATH      :
 TREATMENT 32   : TERRAREF-----S4_1056      SGCER048
  

!                                                 Initial               Final
!                                                Year/DOY            Year/DOY
!                                                2018-079            2018-079
! SOIL C BALANCE                                 --------- kg[C]/ha ---------
!  SOIL & SURFACE ORGANIC C
!   Soil Organic C                              118234.42           117664.47
!   Surface Organic C                                0.00                0.00
!   Soil Litter C                                    0.00               22.32
!   Surface Litter C                                 0.00                0.00
!   Soil methane C stored                            0.00                0.00
!                                                --------            --------
!   Total C in Soil and Surface Layers          118234.42           117686.79
!  ADDITIONS AND REMOVALS:
!   C in Harvest Residues from Previous              0.00
!   C from Organic Applications                      0.00
!   C in returned senesced material                 34.67
!   CO2-C emitted                                  582.22
!   CH4-C emitted                                    0.00
!   CH4-C leached                                    0.00
!   CH4-C plant uptake                               0.00
!                                                --------            --------
! TOTAL C BALANCE                               118269.09           118269.01
!   Balance                                                            -0.078

*DSSAT Cropping System Model Ver. 4.8.0.027 -develop  JUN 30, 2022 07:20:25

*RUN  33        : TERRAREF-----S4_1064      SGCER048 TERRAR01   33
 MODEL          : SGCER048 - Sorghum
 EXPERIMENT     : TERRAR01 SG
 DATA PATH      :
 TREATMENT 33   : TERRAREF-----S4_1064      SGCER048
  

!                                                 Initial               Final
!                                                Year/DOY            Year/DOY
!                                                2018-079            2018-079
! SOIL C BALANCE                                 --------- kg[C]/ha ---------
!  SOIL & SURFACE ORGANIC C
!   Soil Organic C                              118234.42           117664.47
!   Surface Organic C                                0.00                0.00
!   Soil Litter C                                    0.00               22.32
!   Surface Litter C                                 0.00                0.00
!   Soil methane C stored                            0.00                0.00
!                                                --------            --------
!   Total C in Soil and Surface Layers          118234.42           117686.79
!  ADDITIONS AND REMOVALS:
!   C in Harvest Residues from Previous              0.00
!   C from Organic Applications                      0.00
!   C in returned senesced material                 34.67
!   CO2-C emitted                                  582.22
!   CH4-C emitted                                    0.00
!   CH4-C leached                                    0.00
!   CH4-C plant uptake                               0.00
!                                                --------            --------
! TOTAL C BALANCE                               118269.09           118269.01
!   Balance                                                            -0.078

*DSSAT Cropping System Model Ver. 4.8.0.027 -develop  JUN 30, 2022 07:20:25

*RUN  34        : TERRAREF-----S4_1072      SGCER048 TERRAR01   34
 MODEL          : SGCER048 - Sorghum
 EXPERIMENT     : TERRAR01 SG
 DATA PATH      :
 TREATMENT 34   : TERRAREF-----S4_1072      SGCER048
  

!                                                 Initial               Final
!                                                Year/DOY            Year/DOY
!                                                2018-079            2018-079
! SOIL C BALANCE                                 --------- kg[C]/ha ---------
!  SOIL & SURFACE ORGANIC C
!   Soil Organic C                              118234.42           117664.47
!   Surface Organic C                                0.00                0.00
!   Soil Litter C                                    0.00               22.32
!   Surface Litter C                                 0.00                0.00
!   Soil methane C stored                            0.00                0.00
!                                                --------            --------
!   Total C in Soil and Surface Layers          118234.42           117686.79
!  ADDITIONS AND REMOVALS:
!   C in Harvest Residues from Previous              0.00
!   C from Organic Applications                      0.00
!   C in returned senesced material                 34.67
!   CO2-C emitted                                  582.22
!   CH4-C emitted                                    0.00
!   CH4-C leached                                    0.00
!   CH4-C plant uptake                               0.00
!                                                --------            --------
! TOTAL C BALANCE                               118269.09           118269.01
!   Balance                                                            -0.078

*DSSAT Cropping System Model Ver. 4.8.0.027 -develop  JUN 30, 2022 07:20:25

*RUN  35        : TERRAREF-----S4_1080      SGCER048 TERRAR01   35
 MODEL          : SGCER048 - Sorghum
 EXPERIMENT     : TERRAR01 SG
 DATA PATH      :
 TREATMENT 35   : TERRAREF-----S4_1080      SGCER048
  

!                                                 Initial               Final
!                                                Year/DOY            Year/DOY
!                                                2018-079            2018-079
! SOIL C BALANCE                                 --------- kg[C]/ha ---------
!  SOIL & SURFACE ORGANIC C
!   Soil Organic C                              118234.42           117664.47
!   Surface Organic C                                0.00                0.00
!   Soil Litter C                                    0.00               22.32
!   Surface Litter C                                 0.00                0.00
!   Soil methane C stored                            0.00                0.00
!                                                --------            --------
!   Total C in Soil and Surface Layers          118234.42           117686.79
!  ADDITIONS AND REMOVALS:
!   C in Harvest Residues from Previous              0.00
!   C from Organic Applications                      0.00
!   C in returned senesced material                 34.67
!   CO2-C emitted                                  582.22
!   CH4-C emitted                                    0.00
!   CH4-C leached                                    0.00
!   CH4-C plant uptake                               0.00
!                                                --------            --------
! TOTAL C BALANCE                               118269.09           118269.01
!   Balance                                                            -0.078

*DSSAT Cropping System Model Ver. 4.8.0.027 -develop  JUN 30, 2022 07:20:25

*RUN  36        : TERRAREF-----S4_1088      SGCER048 TERRAR01   36
 MODEL          : SGCER048 - Sorghum
 EXPERIMENT     : TERRAR01 SG
 DATA PATH      :
 TREATMENT 36   : TERRAREF-----S4_1088      SGCER048
  

!                                                 Initial               Final
!                                                Year/DOY            Year/DOY
!                                                2018-079            2018-079
! SOIL C BALANCE                                 --------- kg[C]/ha ---------
!  SOIL & SURFACE ORGANIC C
!   Soil Organic C                              118234.42           117664.47
!   Surface Organic C                                0.00                0.00
!   Soil Litter C                                    0.00               22.32
!   Surface Litter C                                 0.00                0.00
!   Soil methane C stored                            0.00                0.00
!                                                --------            --------
!   Total C in Soil and Surface Layers          118234.42           117686.79
!  ADDITIONS AND REMOVALS:
!   C in Harvest Residues from Previous              0.00
!   C from Organic Applications                      0.00
!   C in returned senesced material                 34.67
!   CO2-C emitted                                  582.22
!   CH4-C emitted                                    0.00
!   CH4-C leached                                    0.00
!   CH4-C plant uptake                               0.00
!                                                --------            --------
! TOTAL C BALANCE                               118269.09           118269.01
!   Balance                                                            -0.078

*DSSAT Cropping System Model Ver. 4.8.0.027 -develop  JUN 30, 2022 07:20:25

*RUN  37        : TERRAREF-----S4_1096      SGCER048 TERRAR01   37
 MODEL          : SGCER048 - Sorghum
 EXPERIMENT     : TERRAR01 SG
 DATA PATH      :
 TREATMENT 37   : TERRAREF-----S4_1096      SGCER048
  

!                                                 Initial               Final
!                                                Year/DOY            Year/DOY
!                                                2018-079            2018-079
! SOIL C BALANCE                                 --------- kg[C]/ha ---------
!  SOIL & SURFACE ORGANIC C
!   Soil Organic C                              118234.42           117664.47
!   Surface Organic C                                0.00                0.00
!   Soil Litter C                                    0.00               22.32
!   Surface Litter C                                 0.00                0.00
!   Soil methane C stored                            0.00                0.00
!                                                --------            --------
!   Total C in Soil and Surface Layers          118234.42           117686.79
!  ADDITIONS AND REMOVALS:
!   C in Harvest Residues from Previous              0.00
!   C from Organic Applications                      0.00
!   C in returned senesced material                 34.67
!   CO2-C emitted                                  582.22
!   CH4-C emitted                                    0.00
!   CH4-C leached                                    0.00
!   CH4-C plant uptake                               0.00
!                                                --------            --------
! TOTAL C BALANCE                               118269.09           118269.01
!   Balance                                                            -0.078

*DSSAT Cropping System Model Ver. 4.8.0.027 -develop  JUN 30, 2022 07:20:26

*RUN  38        : TERRAREF-----S4_1104      SGCER048 TERRAR01   38
 MODEL          : SGCER048 - Sorghum
 EXPERIMENT     : TERRAR01 SG
 DATA PATH      :
 TREATMENT 38   : TERRAREF-----S4_1104      SGCER048
  

!                                                 Initial               Final
!                                                Year/DOY            Year/DOY
!                                                2018-079            2018-079
! SOIL C BALANCE                                 --------- kg[C]/ha ---------
!  SOIL & SURFACE ORGANIC C
!   Soil Organic C                              118234.42           117664.47
!   Surface Organic C                                0.00                0.00
!   Soil Litter C                                    0.00               22.32
!   Surface Litter C                                 0.00                0.00
!   Soil methane C stored                            0.00                0.00
!                                                --------            --------
!   Total C in Soil and Surface Layers          118234.42           117686.79
!  ADDITIONS AND REMOVALS:
!   C in Harvest Residues from Previous              0.00
!   C from Organic Applications                      0.00
!   C in returned senesced material                 34.67
!   CO2-C emitted                                  582.22
!   CH4-C emitted                                    0.00
!   CH4-C leached                                    0.00
!   CH4-C plant uptake                               0.00
!                                                --------            --------
! TOTAL C BALANCE                               118269.09           118269.01
!   Balance                                                            -0.078

*DSSAT Cropping System Model Ver. 4.8.0.027 -develop  JUN 30, 2022 07:20:26

*RUN  39        : TERRAREF-----S4_1112      SGCER048 TERRAR01   39
 MODEL          : SGCER048 - Sorghum
 EXPERIMENT     : TERRAR01 SG
 DATA PATH      :
 TREATMENT 39   : TERRAREF-----S4_1112      SGCER048
  

!                                                 Initial               Final
!                                                Year/DOY            Year/DOY
!                                                2018-079            2018-079
! SOIL C BALANCE                                 --------- kg[C]/ha ---------
!  SOIL & SURFACE ORGANIC C
!   Soil Organic C                              118234.42           117664.47
!   Surface Organic C                                0.00                0.00
!   Soil Litter C                                    0.00               22.32
!   Surface Litter C                                 0.00                0.00
!   Soil methane C stored                            0.00                0.00
!                                                --------            --------
!   Total C in Soil and Surface Layers          118234.42           117686.79
!  ADDITIONS AND REMOVALS:
!   C in Harvest Residues from Previous              0.00
!   C from Organic Applications                      0.00
!   C in returned senesced material                 34.67
!   CO2-C emitted                                  582.22
!   CH4-C emitted                                    0.00
!   CH4-C leached                                    0.00
!   CH4-C plant uptake                               0.00
!                                                --------            --------
! TOTAL C BALANCE                               118269.09           118269.01
!   Balance                                                            -0.078

*DSSAT Cropping System Model Ver. 4.8.0.027 -develop  JUN 30, 2022 07:20:26

*RUN  40        : TERRAREF-----S4_1120      SGCER048 TERRAR01   40
 MODEL          : SGCER048 - Sorghum
 EXPERIMENT     : TERRAR01 SG
 DATA PATH      :
 TREATMENT 40   : TERRAREF-----S4_1120      SGCER048
  

!                                                 Initial               Final
!                                                Year/DOY            Year/DOY
!                                                2018-079            2018-079
! SOIL C BALANCE                                 --------- kg[C]/ha ---------
!  SOIL & SURFACE ORGANIC C
!   Soil Organic C                              118234.42           117664.47
!   Surface Organic C                                0.00                0.00
!   Soil Litter C                                    0.00               22.32
!   Surface Litter C                                 0.00                0.00
!   Soil methane C stored                            0.00                0.00
!                                                --------            --------
!   Total C in Soil and Surface Layers          118234.42           117686.79
!  ADDITIONS AND REMOVALS:
!   C in Harvest Residues from Previous              0.00
!   C from Organic Applications                      0.00
!   C in returned senesced material                 34.67
!   CO2-C emitted                                  582.22
!   CH4-C emitted                                    0.00
!   CH4-C leached                                    0.00
!   CH4-C plant uptake                               0.00
!                                                --------            --------
! TOTAL C BALANCE                               118269.09           118269.01
!   Balance                                                            -0.078

*DSSAT Cropping System Model Ver. 4.8.0.027 -develop  JUN 30, 2022 07:20:26

*RUN  41        : TERRAREF-----S4_1128      SGCER048 TERRAR01   41
 MODEL          : SGCER048 - Sorghum
 EXPERIMENT     : TERRAR01 SG
 DATA PATH      :
 TREATMENT 41   : TERRAREF-----S4_1128      SGCER048
  

!                                                 Initial               Final
!                                                Year/DOY            Year/DOY
!                                                2018-079            2018-079
! SOIL C BALANCE                                 --------- kg[C]/ha ---------
!  SOIL & SURFACE ORGANIC C
!   Soil Organic C                              118234.42           117664.47
!   Surface Organic C                                0.00                0.00
!   Soil Litter C                                    0.00               22.32
!   Surface Litter C                                 0.00                0.00
!   Soil methane C stored                            0.00                0.00
!                                                --------            --------
!   Total C in Soil and Surface Layers          118234.42           117686.79
!  ADDITIONS AND REMOVALS:
!   C in Harvest Residues from Previous              0.00
!   C from Organic Applications                      0.00
!   C in returned senesced material                 34.67
!   CO2-C emitted                                  582.22
!   CH4-C emitted                                    0.00
!   CH4-C leached                                    0.00
!   CH4-C plant uptake                               0.00
!                                                --------            --------
! TOTAL C BALANCE                               118269.09           118269.01
!   Balance                                                            -0.078

*DSSAT Cropping System Model Ver. 4.8.0.027 -develop  JUN 30, 2022 07:20:26

*RUN  42        : TERRAREF-----S4_1136      SGCER048 TERRAR01   42
 MODEL          : SGCER048 - Sorghum
 EXPERIMENT     : TERRAR01 SG
 DATA PATH      :
 TREATMENT 42   : TERRAREF-----S4_1136      SGCER048
  

!                                                 Initial               Final
!                                                Year/DOY            Year/DOY
!                                                2018-079            2018-079
! SOIL C BALANCE                                 --------- kg[C]/ha ---------
!  SOIL & SURFACE ORGANIC C
!   Soil Organic C                              118234.42           117664.47
!   Surface Organic C                                0.00                0.00
!   Soil Litter C                                    0.00               22.32
!   Surface Litter C                                 0.00                0.00
!   Soil methane C stored                            0.00                0.00
!                                                --------            --------
!   Total C in Soil and Surface Layers          118234.42           117686.79
!  ADDITIONS AND REMOVALS:
!   C in Harvest Residues from Previous              0.00
!   C from Organic Applications                      0.00
!   C in returned senesced material                 34.67
!   CO2-C emitted                                  582.22
!   CH4-C emitted                                    0.00
!   CH4-C leached                                    0.00
!   CH4-C plant uptake                               0.00
!                                                --------            --------
! TOTAL C BALANCE                               118269.09           118269.01
!   Balance                                                            -0.078

*DSSAT Cropping System Model Ver. 4.8.0.027 -develop  JUN 30, 2022 07:20:26

*RUN  43        : TERRAREF-----S4_1144      SGCER048 TERRAR01   43
 MODEL          : SGCER048 - Sorghum
 EXPERIMENT     : TERRAR01 SG
 DATA PATH      :
 TREATMENT 43   : TERRAREF-----S4_1144      SGCER048
  

!                                                 Initial               Final
!                                                Year/DOY            Year/DOY
!                                                2018-079            2018-079
! SOIL C BALANCE                                 --------- kg[C]/ha ---------
!  SOIL & SURFACE ORGANIC C
!   Soil Organic C                              118234.42           117664.47
!   Surface Organic C                                0.00                0.00
!   Soil Litter C                                    0.00               22.32
!   Surface Litter C                                 0.00                0.00
!   Soil methane C stored                            0.00                0.00
!                                                --------            --------
!   Total C in Soil and Surface Layers          118234.42           117686.79
!  ADDITIONS AND REMOVALS:
!   C in Harvest Residues from Previous              0.00
!   C from Organic Applications                      0.00
!   C in returned senesced material                 34.67
!   CO2-C emitted                                  582.22
!   CH4-C emitted                                    0.00
!   CH4-C leached                                    0.00
!   CH4-C plant uptake                               0.00
!                                                --------            --------
! TOTAL C BALANCE                               118269.09           118269.01
!   Balance                                                            -0.078

*DSSAT Cropping System Model Ver. 4.8.0.027 -develop  JUN 30, 2022 07:20:26

*RUN  44        : TERRAREF-----S4_1152      SGCER048 TERRAR01   44
 MODEL          : SGCER048 - Sorghum
 EXPERIMENT     : TERRAR01 SG
 DATA PATH      :
 TREATMENT 44   : TERRAREF-----S4_1152      SGCER048
  

!                                                 Initial               Final
!                                                Year/DOY            Year/DOY
!                                                2018-079            2018-079
! SOIL C BALANCE                                 --------- kg[C]/ha ---------
!  SOIL & SURFACE ORGANIC C
!   Soil Organic C                              118234.42           117664.47
!   Surface Organic C                                0.00                0.00
[...]
  

!                                                 Initial               Final
!                                                Year/DOY            Year/DOY
!                                                2018-079            2018-079
! SOIL C BALANCE                                 --------- kg[C]/ha ---------
!  SOIL & SURFACE ORGANIC C
!   Soil Organic C                              118234.42           117664.47
!   Surface Organic C                                0.00                0.00
!   Soil Litter C                                    0.00               22.32
!   Surface Litter C                                 0.00                0.00
!   Soil methane C stored                            0.00                0.00
!                                                --------            --------
!   Total C in Soil and Surface Layers          118234.42           117686.79
!  ADDITIONS AND REMOVALS:
!   C in Harvest Residues from Previous              0.00
!   C from Organic Applications                      0.00
!   C in returned senesced material                 34.67
!   CO2-C emitted                                  582.22
!   CH4-C emitted                                    0.00
!   CH4-C leached                                    0.00
!   CH4-C plant uptake                               0.00
!                                                --------            --------
! TOTAL C BALANCE                               118269.09           118269.01
!   Balance                                                            -0.078

*DSSAT Cropping System Model Ver. 4.8.0.027 -develop  JUN 30, 2022 07:21:04

*RUN 391        : TERRAREF-----S4_3928      SGCER048 TERRAR01  391
 MODEL          : SGCER048 - Sorghum
 EXPERIMENT     : TERRAR01 SG
 DATA PATH      :
 TREATMENT391   : TERRAREF-----S4_3928      SGCER048
  

!                                                 Initial               Final
!                                                Year/DOY            Year/DOY
!                                                2018-079            2018-079
! SOIL C BALANCE                                 --------- kg[C]/ha ---------
!  SOIL & SURFACE ORGANIC C
!   Soil Organic C                              118234.42           117664.47
!   Surface Organic C                                0.00                0.00
!   Soil Litter C                                    0.00               22.32
!   Surface Litter C                                 0.00                0.00
!   Soil methane C stored                            0.00                0.00
!                                                --------            --------
!   Total C in Soil and Surface Layers          118234.42           117686.79
!  ADDITIONS AND REMOVALS:
!   C in Harvest Residues from Previous              0.00
!   C from Organic Applications                      0.00
!   C in returned senesced material                 34.67
!   CO2-C emitted                                  582.22
!   CH4-C emitted                                    0.00
!   CH4-C leached                                    0.00
!   CH4-C plant uptake                               0.00
!                                                --------            --------
! TOTAL C BALANCE                               118269.09           118269.01
!   Balance                                                            -0.078

*DSSAT Cropping System Model Ver. 4.8.0.027 -develop  JUN 30, 2022 07:21:04

*RUN 392        : TERRAREF-----S4_3936      SGCER048 TERRAR01  392
 MODEL          : SGCER048 - Sorghum
 EXPERIMENT     : TERRAR01 SG
 DATA PATH      :
 TREATMENT392   : TERRAREF-----S4_3936      SGCER048
  

!                                                 Initial               Final
!                                                Year/DOY            Year/DOY
!                                                2018-079            2018-079
! SOIL C BALANCE                                 --------- kg[C]/ha ---------
!  SOIL & SURFACE ORGANIC C
!   Soil Organic C                              118234.42           117664.47
!   Surface Organic C                                0.00                0.00
!   Soil Litter C                                    0.00               22.32
!   Surface Litter C                                 0.00                0.00
!   Soil methane C stored                            0.00                0.00
!                                                --------            --------
!   Total C in Soil and Surface Layers          118234.42           117686.79
!  ADDITIONS AND REMOVALS:
!   C in Harvest Residues from Previous              0.00
!   C from Organic Applications                      0.00
!   C in returned senesced material                 34.67
!   CO2-C emitted                                  582.22
!   CH4-C emitted                                    0.00
!   CH4-C leached                                    0.00
!   CH4-C plant uptake                               0.00
!                                                --------            --------
! TOTAL C BALANCE                               118269.09           118269.01
!   Balance                                                            -0.078

*DSSAT Cropping System Model Ver. 4.8.0.027 -develop  JUN 30, 2022 07:21:04

*RUN 393        : TERRAREF-----S4_3944      SGCER048 TERRAR01  393
 MODEL          : SGCER048 - Sorghum
 EXPERIMENT     : TERRAR01 SG
 DATA PATH      :
 TREATMENT393   : TERRAREF-----S4_3944      SGCER048
  

!                                                 Initial               Final
!                                                Year/DOY            Year/DOY
!                                                2018-079            2018-079
! SOIL C BALANCE                                 --------- kg[C]/ha ---------
!  SOIL & SURFACE ORGANIC C
!   Soil Organic C                              118234.42           117664.47
!   Surface Organic C                                0.00                0.00
!   Soil Litter C                                    0.00               22.32
!   Surface Litter C                                 0.00                0.00
!   Soil methane C stored                            0.00                0.00
!                                                --------            --------
!   Total C in Soil and Surface Layers          118234.42           117686.79
!  ADDITIONS AND REMOVALS:
!   C in Harvest Residues from Previous              0.00
!   C from Organic Applications                      0.00
!   C in returned senesced material                 34.67
!   CO2-C emitted                                  582.22
!   CH4-C emitted                                    0.00
!   CH4-C leached                                    0.00
!   CH4-C plant uptake                               0.00
!                                                --------            --------
! TOTAL C BALANCE                               118269.09           118269.01
!   Balance                                                            -0.078

*DSSAT Cropping System Model Ver. 4.8.0.027 -develop  JUN 30, 2022 07:21:04

*RUN 394        : TERRAREF-----S4_3952      SGCER048 TERRAR01  394
 MODEL          : SGCER048 - Sorghum
 EXPERIMENT     : TERRAR01 SG
 DATA PATH      :
 TREATMENT394   : TERRAREF-----S4_3952      SGCER048
  

!                                                 Initial               Final
!                                                Year/DOY            Year/DOY
!                                                2018-079            2018-079
! SOIL C BALANCE                                 --------- kg[C]/ha ---------
!  SOIL & SURFACE ORGANIC C
!   Soil Organic C                              118234.42           117664.47
!   Surface Organic C                                0.00                0.00
!   Soil Litter C                                    0.00               22.32
!   Surface Litter C                                 0.00                0.00
!   Soil methane C stored                            0.00                0.00
!                                                --------            --------
!   Total C in Soil and Surface Layers          118234.42           117686.79
!  ADDITIONS AND REMOVALS:
!   C in Harvest Residues from Previous              0.00
!   C from Organic Applications                      0.00
!   C in returned senesced material                 34.67
!   CO2-C emitted                                  582.22
!   CH4-C emitted                                    0.00
!   CH4-C leached                                    0.00
!   CH4-C plant uptake                               0.00
!                                                --------            --------
! TOTAL C BALANCE                               118269.09           118269.01
!   Balance                                                            -0.078

*DSSAT Cropping System Model Ver. 4.8.0.027 -develop  JUN 30, 2022 07:21:04

*RUN 395        : TERRAREF-----S4_3960      SGCER048 TERRAR01  395
 MODEL          : SGCER048 - Sorghum
 EXPERIMENT     : TERRAR01 SG
 DATA PATH      :
 TREATMENT395   : TERRAREF-----S4_3960      SGCER048
  

!                                                 Initial               Final
!                                                Year/DOY            Year/DOY
!                                                2018-079            2018-079
! SOIL C BALANCE                                 --------- kg[C]/ha ---------
!  SOIL & SURFACE ORGANIC C
!   Soil Organic C                              118234.42           117664.47
!   Surface Organic C                                0.00                0.00
!   Soil Litter C                                    0.00               22.32
!   Surface Litter C                                 0.00                0.00
!   Soil methane C stored                            0.00                0.00
!                                                --------            --------
!   Total C in Soil and Surface Layers          118234.42           117686.79
!  ADDITIONS AND REMOVALS:
!   C in Harvest Residues from Previous              0.00
!   C from Organic Applications                      0.00
!   C in returned senesced material                 34.67
!   CO2-C emitted                                  582.22
!   CH4-C emitted                                    0.00
!   CH4-C leached                                    0.00
!   CH4-C plant uptake                               0.00
!                                                --------            --------
! TOTAL C BALANCE                               118269.09           118269.01
!   Balance                                                            -0.078

*DSSAT Cropping System Model Ver. 4.8.0.027 -develop  JUN 30, 2022 07:21:04

*RUN 396        : TERRAREF-----S4_3968      SGCER048 TERRAR01  396
 MODEL          : SGCER048 - Sorghum
 EXPERIMENT     : TERRAR01 SG
 DATA PATH      :
 TREATMENT396   : TERRAREF-----S4_3968      SGCER048
  

!                                                 Initial               Final
!                                                Year/DOY            Year/DOY
!                                                2018-079            2018-079
! SOIL C BALANCE                                 --------- kg[C]/ha ---------
!  SOIL & SURFACE ORGANIC C
!   Soil Organic C                              118234.42           117664.47
!   Surface Organic C                                0.00                0.00
!   Soil Litter C                                    0.00               22.32
!   Surface Litter C                                 0.00                0.00
!   Soil methane C stored                            0.00                0.00
!                                                --------            --------
!   Total C in Soil and Surface Layers          118234.42           117686.79
!  ADDITIONS AND REMOVALS:
!   C in Harvest Residues from Previous              0.00
!   C from Organic Applications                      0.00
!   C in returned senesced material                 34.67
!   CO2-C emitted                                  582.22
!   CH4-C emitted                                    0.00
!   CH4-C leached                                    0.00
!   CH4-C plant uptake                               0.00
!                                                --------            --------
! TOTAL C BALANCE                               118269.09           118269.01
!   Balance                                                            -0.078

*DSSAT Cropping System Model Ver. 4.8.0.027 -develop  JUN 30, 2022 07:21:05

*RUN 397        : TERRAREF-----S4_3976      SGCER048 TERRAR01  397
 MODEL          : SGCER048 - Sorghum
 EXPERIMENT     : TERRAR01 SG
 DATA PATH      :
 TREATMENT397   : TERRAREF-----S4_3976      SGCER048
  

!                                                 Initial               Final
!                                                Year/DOY            Year/DOY
!                                                2018-079            2018-079
! SOIL C BALANCE                                 --------- kg[C]/ha ---------
!  SOIL & SURFACE ORGANIC C
!   Soil Organic C                              118234.42           117664.47
!   Surface Organic C                                0.00                0.00
!   Soil Litter C                                    0.00               22.32
!   Surface Litter C                                 0.00                0.00
!   Soil methane C stored                            0.00                0.00
!                                                --------            --------
!   Total C in Soil and Surface Layers          118234.42           117686.79
!  ADDITIONS AND REMOVALS:
!   C in Harvest Residues from Previous              0.00
!   C from Organic Applications                      0.00
!   C in returned senesced material                 34.67
!   CO2-C emitted                                  582.22
!   CH4-C emitted                                    0.00
!   CH4-C leached                                    0.00
!   CH4-C plant uptake                               0.00
!                                                --------            --------
! TOTAL C BALANCE                               118269.09           118269.01
!   Balance                                                            -0.078

*DSSAT Cropping System Model Ver. 4.8.0.027 -develop  JUN 30, 2022 07:21:05

*RUN 398        : TERRAREF-----S4_3984      SGCER048 TERRAR01  398
 MODEL          : SGCER048 - Sorghum
 EXPERIMENT     : TERRAR01 SG
 DATA PATH      :
 TREATMENT398   : TERRAREF-----S4_3984      SGCER048
  

!                                                 Initial               Final
!                                                Year/DOY            Year/DOY
!                                                2018-079            2018-079
! SOIL C BALANCE                                 --------- kg[C]/ha ---------
!  SOIL & SURFACE ORGANIC C
!   Soil Organic C                              118234.42           117664.47
!   Surface Organic C                                0.00                0.00
!   Soil Litter C                                    0.00               22.32
!   Surface Litter C                                 0.00                0.00
!   Soil methane C stored                            0.00                0.00
!                                                --------            --------
!   Total C in Soil and Surface Layers          118234.42           117686.79
!  ADDITIONS AND REMOVALS:
!   C in Harvest Residues from Previous              0.00
!   C from Organic Applications                      0.00
!   C in returned senesced material                 34.67
!   CO2-C emitted                                  582.22
!   CH4-C emitted                                    0.00
!   CH4-C leached                                    0.00
!   CH4-C plant uptake                               0.00
!                                                --------            --------
! TOTAL C BALANCE                               118269.09           118269.01
!   Balance                                                            -0.078

*DSSAT Cropping System Model Ver. 4.8.0.027 -develop  JUN 30, 2022 07:21:05

*RUN 399        : TERRAREF-----S4_3992      SGCER048 TERRAR01  399
 MODEL          : SGCER048 - Sorghum
 EXPERIMENT     : TERRAR01 SG
 DATA PATH      :
 TREATMENT399   : TERRAREF-----S4_3992      SGCER048
  

!                                                 Initial               Final
!                                                Year/DOY            Year/DOY
!                                                2018-079            2018-079
! SOIL C BALANCE                                 --------- kg[C]/ha ---------
!  SOIL & SURFACE ORGANIC C
!   Soil Organic C                              118234.42           117664.47
!   Surface Organic C                                0.00                0.00
!   Soil Litter C                                    0.00               22.32
!   Surface Litter C                                 0.00                0.00
!   Soil methane C stored                            0.00                0.00
!                                                --------            --------
!   Total C in Soil and Surface Layers          118234.42           117686.79
!  ADDITIONS AND REMOVALS:
!   C in Harvest Residues from Previous              0.00
!   C from Organic Applications                      0.00
!   C in returned senesced material                 34.67
!   CO2-C emitted                                  582.22
!   CH4-C emitted                                    0.00
!   CH4-C leached                                    0.00
!   CH4-C plant uptake                               0.00
!                                                --------            --------
! TOTAL C BALANCE                               118269.09           118269.01
!   Balance                                                            -0.078

*DSSAT Cropping System Model Ver. 4.8.0.027 -develop  JUN 30, 2022 07:21:05

*RUN 400        : TERRAREF-----S4_4000      SGCER048 TERRAR01  400
 MODEL          : SGCER048 - Sorghum
 EXPERIMENT     : TERRAR01 SG
 DATA PATH      :
 TREATMENT400   : TERRAREF-----S4_4000      SGCER048
  

!                                                 Initial               Final
!                                                Year/DOY            Year/DOY
!                                                2018-079            2018-079
! SOIL C BALANCE                                 --------- kg[C]/ha ---------
!  SOIL & SURFACE ORGANIC C
!   Soil Organic C                              118234.42           117664.47
!   Surface Organic C                                0.00                0.00
!   Soil Litter C                                    0.00               22.32
!   Surface Litter C                                 0.00                0.00
!   Soil methane C stored                            0.00                0.00
!                                                --------            --------
!   Total C in Soil and Surface Layers          118234.42           117686.79
!  ADDITIONS AND REMOVALS:
!   C in Harvest Residues from Previous              0.00
!   C from Organic Applications                      0.00
!   C in returned senesced material                 34.67
!   CO2-C emitted                                  582.22
!   CH4-C emitted                                    0.00
!   CH4-C leached                                    0.00
!   CH4-C plant uptake                               0.00
!                                                --------            --------
! TOTAL C BALANCE                               118269.09           118269.01
!   Balance                                                            -0.078
